Circuit: * C:\Users\KB1LQ\OneDrive\Documents\GitHub\ADA4610-Transmipedance-Amplifier-REV-1.0\Simulation\LM833N_Headphone.asc

Direct Newton iteration for .op point succeeded.

Date: Wed Aug 24 01:58:44 2022
Total elapsed time: 0.112 seconds.

tnom = 27
temp = 27
method = modified trap
totiter = 5091
traniter = 5052
tranpoints = 1576
accept = 1410
rejected = 166
matrix size = 140
fillins = 126
solver = Normal
Thread vector: 6.2/5.1[3] 2.1/2.6[1] 0.9/1.8[1] 0.8/3.4[1]  2592/500
Matrix Compiler1: 12.29 KB object code size  3.4/4.6/[1.1]
Matrix Compiler2: 12.56 KB object code size  1.6/2.0/[0.7]

