Circuit: * C:\Users\KB1LQ\OneDrive\Documents\GitHub\ADA4610-Transmipedance-Amplifier-REV-1.0\Simulation\TIA_Preamp_Unipolar.asc

WARNING: Less than two connections to node -5V.  This node is used by V2.
WARNING: Less than two connections to node +10V.  This node is used by V3.
Direct Newton iteration failed to find .op point.  (Use ".option noopiter" to skip.)
Starting Gmin stepping
Gmin = 10
Gmin = 1.07374
Gmin = 0.115292
Gmin = 0.0123794
Gmin = 0.00132923
Gmin = 0.000142725
Gmin = 1.5325e-005
Gmin = 1.6455e-006
vernier = 0.5
vernier = 0.25
vernier = 0.125
vernier = 0.0625
vernier = 0.03125
Gmin = 6.73999e-007
vernier = 0.015625
vernier = 0.0078125
vernier = 0.00390625
vernier = 0.00195313
vernier = 0.000976563
vernier = 0.000488281
Gmin = 0
Gmin stepping failed

Starting source stepping with srcstepmethod=0
Source Step = 3.0303%
Source Step = 33.3333%
Source Step = 63.6364%
Source Step = 93.9394%
Source stepping succeeded in finding the operating point.

Heightened Def Con from 1.46563e-007 to 1.46563e-007
Heightened Def Con from 1.46563e-007 to 1.46563e-007
Heightened Def Con from 1.46563e-007 to 1.46563e-007
Heightened Def Con from 1.46563e-007 to 1.46563e-007
Heightened Def Con from 1.46563e-007 to 1.46563e-007
Heightened Def Con from 1.46563e-007 to 1.46563e-007
Heightened Def Con from 1.46563e-007 to 1.46563e-007
Heightened Def Con from 1.46563e-007 to 1.46563e-007
Heightened Def Con from 1.46563e-007 to 1.46563e-007
Heightened Def Con from 1.46563e-007 to 1.46563e-007
Heightened Def Con from 1.46563e-007 to 1.46563e-007
Heightened Def Con from 1.46563e-007 to 1.46563e-007
Heightened Def Con from 1.46563e-007 to 1.46563e-007
Heightened Def Con from 1.46563e-007 to 1.46563e-007
Heightened Def Con from 1.46563e-007 to 1.46563e-007
Heightened Def Con from 1.46563e-007 to 1.46563e-007
Heightened Def Con from 1.46563e-007 to 1.46563e-007
Heightened Def Con from 1.46563e-007 to 1.46563e-007
Heightened Def Con from 1.46563e-007 to 1.46563e-007
Heightened Def Con from 1.46563e-007 to 1.46563e-007
Heightened Def Con from 1.46563e-007 to 1.46563e-007
Heightened Def Con from 1.46564e-007 to 1.46564e-007
Heightened Def Con from 1.46564e-007 ++++++++++++++++++++to 1.46581e-007
Heightened Def Con from 1.46581e-007 +++++++++++++++++++to 1.47706e-007
Heightened Def Con from 1.47706e-007 +++++++++++++++++++to 1.47847e-007
Heightened Def Con from 1.47847e-007 +++++++++++++++++++to 1.47894e-007
Heightened Def Con from 1.47894e-007 +++++++++++++++++++to 1.47911e-007
Heightened Def Con from 1.47911e-007 +++++++++++++++++++to 1.47913e-007
Heightened Def Con from 1.47913e-007 +++++++++++++++++++to 1.47944e-007
Heightened Def Con from 1.47944e-007 +++++++++++++++++++to 1.4821e-007
Heightened Def Con from 1.4821e-007 +++++++++++++++++++to 1.48476e-007
Heightened Def Con from 1.48476e-007 +++++++++++++++++++to 1.48509e-007
Heightened Def Con from 1.48509e-007 +++++++++++++++++++to 1.48556e-007
Heightened Def Con from 1.48556e-007 +++++++++++++++++++to 1.48931e-007
Heightened Def Con from 1.48931e-007 +++++++++++++++++to 1.49306e-007
Heightened Def Con from 1.49306e-007 +++++++to 1.50431e-007
Heightened Def Con from 1.51604e-007 to 1.51604e-007
Heightened Def Con from 1.51604e-007 to 1.51604e-007
Heightened Def Con from 1.51604e-007 to 1.51604e-007
Heightened Def Con from 1.56673e-007 to 1.56673e-007
Heightened Def Con from 1.56673e-007 to 1.56673e-007
Heightened Def Con from 1.61758e-007 to 1.61758e-007
Heightened Def Con from 1.61758e-007 to 1.61758e-007
Heightened Def Con from 1.61758e-007 to 1.61758e-007
Heightened Def Con from 1.61758e-007 to 1.61758e-007
Heightened Def Con from 1.61758e-007 +to 1.61758e-007
Heightened Def Con from 1.61758e-007 ++++++++++++++++++++to 1.61774e-007
Heightened Def Con from 1.61774e-007 +++++++++++++++to 1.61774e-007
Heightened Def Con from 1.61774e-007 +++++++++++++++to 1.61774e-007
Heightened Def Con from 1.61774e-007 +++++++++++++++to 1.61775e-007
Heightened Def Con from 1.61775e-007 +++++++++++++++to 1.61775e-007
Heightened Def Con from 1.61775e-007 +++++++++++++++to 1.61775e-007
Heightened Def Con from 1.61775e-007 +++++++++++++++to 1.61775e-007
Heightened Def Con from 1.61775e-007 +++++++++++++++to 1.61776e-007
Heightened Def Con from 1.61776e-007 +++++++++++++++to 1.61776e-007
Heightened Def Con from 1.61776e-007 +++++++++++++++to 1.61778e-007
Heightened Def Con from 1.61778e-007 +++++to 1.61778e-007
Heightened Def Con from 1.66852e-007 to 1.66852e-007
Heightened Def Con from 1.66852e-007 to 1.66852e-007
Heightened Def Con from 1.66852e-007 to 1.66852e-007
Heightened Def Con from 1.66852e-007 to 1.66852e-007
Heightened Def Con from 1.66852e-007 to 1.66852e-007
Heightened Def Con from 1.66852e-007 to 1.66852e-007
Heightened Def Con from 1.66852e-007 to 1.66852e-007
Heightened Def Con from 1.66852e-007 to 1.66852e-007
Heightened Def Con from 1.66852e-007 to 1.66852e-007
Heightened Def Con from 1.66852e-007 to 1.66852e-007
Heightened Def Con from 1.66852e-007 to 1.66852e-007
Heightened Def Con from 1.66852e-007 to 1.66852e-007
Heightened Def Con from 1.66852e-007 to 1.66852e-007
Heightened Def Con from 1.66852e-007 to 1.66852e-007
Heightened Def Con from 1.66852e-007 to 1.66852e-007
Heightened Def Con from 1.66852e-007 to 1.66852e-007
Heightened Def Con from 1.66852e-007 to 1.66852e-007
Heightened Def Con from 1.66852e-007 to 1.66852e-007
Heightened Def Con from 1.66852e-007 to 1.66852e-007
Heightened Def Con from 1.66852e-007 to 1.66852e-007
Heightened Def Con from 1.66852e-007 to 1.66852e-007
Heightened Def Con from 1.66852e-007 to 1.66852e-007
Heightened Def Con from 1.66852e-007 to 1.66852e-007
Heightened Def Con from 1.66852e-007 to 1.66852e-007
Heightened Def Con from 1.66852e-007 to 1.66852e-007
Heightened Def Con from 1.66852e-007 to 1.66852e-007
Heightened Def Con from 1.66852e-007 to 1.66852e-007
Heightened Def Con from 1.66852e-007 to 1.66852e-007
Heightened Def Con from 1.66852e-007 to 1.66852e-007
Heightened Def Con from 1.66852e-007 to 1.66852e-007
Heightened Def Con from 1.66852e-007 to 1.66852e-007
Heightened Def Con from 1.66852e-007 to 1.66852e-007
Heightened Def Con from 1.66852e-007 to 1.66852e-007
Heightened Def Con from 1.66852e-007 to 1.66852e-007
Heightened Def Con from 1.66852e-007 to 1.66852e-007
Heightened Def Con from 1.66852e-007 to 1.66852e-007
Heightened Def Con from 1.66852e-007 to 1.66852e-007
Heightened Def Con from 1.66852e-007 to 1.66852e-007
Heightened Def Con from 1.66852e-007 to 1.66852e-007
Heightened Def Con from 1.66852e-007 to 1.66852e-007
Heightened Def Con from 1.66852e-007 to 1.66852e-007
Heightened Def Con from 1.66852e-007 to 1.66852e-007
Heightened Def Con from 1.66852e-007 to 1.66852e-007
Heightened Def Con from 1.66852e-007 to 1.66852e-007
Heightened Def Con from 1.66852e-007 to 1.66852e-007
Heightened Def Con from 1.66852e-007 to 1.66852e-007
Heightened Def Con from 1.66852e-007 to 1.66852e-007
Heightened Def Con from 1.66852e-007 to 1.66852e-007
Heightened Def Con from 1.66852e-007 to 1.66852e-007
Heightened Def Con from 1.66852e-007 to 1.66852e-007
Heightened Def Con from 1.66852e-007 to 1.66852e-007
Heightened Def Con from 1.66852e-007 to 1.66852e-007
Heightened Def Con from 1.66852e-007 to 1.66852e-007
Heightened Def Con from 1.66852e-007 to 1.66852e-007
Heightened Def Con from 1.66852e-007 to 1.66852e-007
Heightened Def Con from 1.66852e-007 to 1.66852e-007
Heightened Def Con from 1.66852e-007 to 1.66852e-007
Heightened Def Con from 1.66852e-007 to 1.66852e-007
Heightened Def Con from 1.66852e-007 to 1.66852e-007
Heightened Def Con from 1.66852e-007 to 1.66852e-007
Heightened Def Con from 1.66852e-007 to 1.66852e-007
Heightened Def Con from 1.66852e-007 to 1.66852e-007
Heightened Def Con from 1.66852e-007 to 1.66852e-007
Heightened Def Con from 1.66852e-007 to 1.66852e-007
Heightened Def Con from 1.66852e-007 to 1.66852e-007
Heightened Def Con from 1.66852e-007 to 1.66852e-007
Heightened Def Con from 1.66852e-007 to 1.66852e-007
Heightened Def Con from 1.66852e-007 to 1.66852e-007
Heightened Def Con from 1.66852e-007 to 1.66852e-007
Heightened Def Con from 1.66852e-007 to 1.66852e-007
Heightened Def Con from 1.66852e-007 to 1.66852e-007
Heightened Def Con from 1.66852e-007 to 1.66852e-007
Heightened Def Con from 1.66852e-007 to 1.66852e-007
Heightened Def Con from 1.66852e-007 to 1.66852e-007
Heightened Def Con from 1.66852e-007 to 1.66852e-007
Heightened Def Con from 1.66852e-007 to 1.66852e-007
Heightened Def Con from 1.66852e-007 to 1.66852e-007
Heightened Def Con from 1.66852e-007 to 1.66852e-007
Heightened Def Con from 1.66852e-007 to 1.66852e-007
Heightened Def Con from 1.66852e-007 to 1.66852e-007
Heightened Def Con from 1.66852e-007 to 1.66852e-007
Heightened Def Con from 1.66852e-007 to 1.66852e-007
Heightened Def Con from 1.66852e-007 to 1.66852e-007
Heightened Def Con from 1.66852e-007 to 1.66852e-007
Heightened Def Con from 1.66852e-007 to 1.66852e-007
Heightened Def Con from 1.66852e-007 to 1.66852e-007
Heightened Def Con from 1.66852e-007 to 1.66852e-007
Heightened Def Con from 1.66852e-007 to 1.66852e-007
Heightened Def Con from 1.66852e-007 to 1.66852e-007
Heightened Def Con from 1.66852e-007 to 1.66852e-007
Heightened Def Con from 1.66852e-007 to 1.66852e-007
Heightened Def Con from 1.66852e-007 to 1.66852e-007
Heightened Def Con from 1.66852e-007 to 1.66852e-007
Heightened Def Con from 1.66852e-007 to 1.66852e-007
Heightened Def Con from 1.66852e-007 to 1.66852e-007
Heightened Def Con from 1.66852e-007 to 1.66852e-007
Heightened Def Con from 1.66852e-007 to 1.66852e-007
Heightened Def Con from 1.66852e-007 to 1.66852e-007
Heightened Def Con from 1.66852e-007 to 1.66852e-007
Heightened Def Con from 1.66852e-007 to 1.66852e-007
Heightened Def Con from 1.66852e-007 to 1.66852e-007
Heightened Def Con from 1.66852e-007 to 1.66852e-007
Heightened Def Con from 1.66852e-007 to 1.66852e-007
Heightened Def Con from 1.66852e-007 to 1.66852e-007
Heightened Def Con from 1.66852e-007 to 1.66852e-007
Heightened Def Con from 1.66852e-007 to 1.66852e-007
Heightened Def Con from 1.66852e-007 to 1.66852e-007
Heightened Def Con from 1.66852e-007 to 1.66852e-007
Heightened Def Con from 1.66852e-007 to 1.66852e-007
Heightened Def Con from 1.66852e-007 to 1.66852e-007
Heightened Def Con from 1.66852e-007 to 1.66852e-007
Heightened Def Con from 1.66852e-007 to 1.66852e-007
Heightened Def Con from 1.66852e-007 to 1.66852e-007
Heightened Def Con from 1.66852e-007 to 1.66852e-007
Heightened Def Con from 1.66852e-007 to 1.66852e-007
Heightened Def Con from 1.66852e-007 to 1.66852e-007
Heightened Def Con from 1.66852e-007 to 1.66852e-007
Heightened Def Con from 1.66852e-007 to 1.66852e-007
Heightened Def Con from 1.66852e-007 to 1.66852e-007
Heightened Def Con from 1.66852e-007 to 1.66852e-007
Heightened Def Con from 1.66852e-007 to 1.66852e-007
Heightened Def Con from 1.66852e-007 to 1.66852e-007
Heightened Def Con from 1.66852e-007 to 1.66852e-007
Heightened Def Con from 1.66852e-007 to 1.66852e-007
Heightened Def Con from 1.66852e-007 to 1.66852e-007
Heightened Def Con from 1.66852e-007 to 1.66852e-007
Heightened Def Con from 1.66852e-007 to 1.66852e-007
Heightened Def Con from 1.66852e-007 to 1.66852e-007
Heightened Def Con from 1.66852e-007 to 1.66852e-007
Heightened Def Con from 1.66852e-007 to 1.66852e-007
Heightened Def Con from 1.66852e-007 to 1.66852e-007
Heightened Def Con from 1.66852e-007 to 1.66852e-007
Heightened Def Con from 1.66852e-007 to 1.66852e-007
Heightened Def Con from 1.66852e-007 to 1.66852e-007
Heightened Def Con from 1.66852e-007 to 1.66852e-007
Heightened Def Con from 1.66852e-007 to 1.66852e-007
Heightened Def Con from 1.66852e-007 to 1.66852e-007
Heightened Def Con from 1.66852e-007 to 1.66852e-007
Heightened Def Con from 1.66852e-007 to 1.66852e-007
Heightened Def Con from 1.66852e-007 to 1.66852e-007
Heightened Def Con from 1.66852e-007 to 1.66852e-007
Heightened Def Con from 1.66852e-007 to 1.66852e-007
Heightened Def Con from 1.66852e-007 to 1.66852e-007
Heightened Def Con from 1.66852e-007 to 1.66852e-007
Heightened Def Con from 1.66852e-007 to 1.66852e-007
Heightened Def Con from 1.66852e-007 to 1.66852e-007
Heightened Def Con from 1.66852e-007 to 1.66852e-007
Heightened Def Con from 1.66852e-007 to 1.66852e-007
Heightened Def Con from 1.66852e-007 to 1.66852e-007
Heightened Def Con from 1.66852e-007 to 1.66852e-007
Heightened Def Con from 1.66852e-007 to 1.66852e-007
Heightened Def Con from 1.66852e-007 to 1.66852e-007
Heightened Def Con from 1.66852e-007 to 1.66852e-007
Heightened Def Con from 1.66852e-007 to 1.66852e-007
Heightened Def Con from 1.66852e-007 to 1.66852e-007
Heightened Def Con from 1.66852e-007 to 1.66852e-007
Heightened Def Con from 1.66852e-007 to 1.66852e-007
Heightened Def Con from 1.66852e-007 to 1.66852e-007
Heightened Def Con from 1.66852e-007 to 1.66852e-007
Heightened Def Con from 1.66852e-007 to 1.66852e-007
Heightened Def Con from 1.66852e-007 to 1.66852e-007
Heightened Def Con from 1.66852e-007 to 1.66852e-007
Heightened Def Con from 1.66852e-007 to 1.66852e-007
Heightened Def Con from 1.66852e-007 to 1.66852e-007
Heightened Def Con from 1.66852e-007 to 1.66852e-007
Heightened Def Con from 1.66852e-007 to 1.66852e-007
Heightened Def Con from 1.66852e-007 to 1.66852e-007
Heightened Def Con from 1.66852e-007 to 1.66852e-007
Heightened Def Con from 1.66852e-007 to 1.66852e-007
Heightened Def Con from 1.66852e-007 to 1.66852e-007
Heightened Def Con from 1.66852e-007 to 1.66852e-007
Heightened Def Con from 1.66852e-007 to 1.66852e-007
Heightened Def Con from 1.66852e-007 to 1.66852e-007
Heightened Def Con from 1.66852e-007 to 1.66852e-007
Heightened Def Con from 1.66852e-007 to 1.66852e-007
Heightened Def Con from 1.66852e-007 to 1.66852e-007
Heightened Def Con from 1.66852e-007 to 1.66852e-007
Heightened Def Con from 1.66852e-007 to 1.66852e-007
Heightened Def Con from 1.66852e-007 to 1.66852e-007
Heightened Def Con from 1.66852e-007 to 1.66852e-007
Heightened Def Con from 1.66852e-007 to 1.66852e-007
Heightened Def Con from 1.66852e-007 to 1.66852e-007
Heightened Def Con from 1.66852e-007 to 1.66852e-007
Heightened Def Con from 1.66852e-007 to 1.66852e-007
Heightened Def Con from 1.66852e-007 to 1.66852e-007
Heightened Def Con from 1.66852e-007 to 1.66852e-007
Heightened Def Con from 1.66852e-007 to 1.66852e-007
Heightened Def Con from 1.66852e-007 to 1.66852e-007
Heightened Def Con from 1.66852e-007 to 1.66852e-007
Heightened Def Con from 1.66852e-007 to 1.66852e-007
Heightened Def Con from 1.66852e-007 to 1.66852e-007
Heightened Def Con from 1.66852e-007 to 1.66852e-007
Heightened Def Con from 1.66852e-007 to 1.66852e-007
Heightened Def Con from 1.66852e-007 to 1.66852e-007
Heightened Def Con from 1.66852e-007 to 1.66852e-007
Heightened Def Con from 1.66852e-007 to 1.66852e-007
Heightened Def Con from 1.66852e-007 to 1.66852e-007
Heightened Def Con from 1.66852e-007 to 1.66852e-007
Heightened Def Con from 1.66852e-007 to 1.66852e-007
Heightened Def Con from 1.66852e-007 to 1.66852e-007
Heightened Def Con from 1.66852e-007 to 1.66852e-007
Heightened Def Con from 1.66852e-007 to 1.66852e-007
Heightened Def Con from 1.66852e-007 to 1.66852e-007
Heightened Def Con from 1.66852e-007 to 1.66852e-007
Heightened Def Con from 1.66852e-007 to 1.66852e-007
Heightened Def Con from 1.66852e-007 to 1.66852e-007
Heightened Def Con from 1.66852e-007 to 1.66852e-007
Heightened Def Con from 1.66852e-007 to 1.66852e-007
Heightened Def Con from 1.66852e-007 to 1.66852e-007
Heightened Def Con from 1.66852e-007 to 1.66852e-007
Heightened Def Con from 1.66852e-007 to 1.66852e-007
Heightened Def Con from 1.66852e-007 to 1.66852e-007
Heightened Def Con from 1.66852e-007 to 1.66852e-007
Heightened Def Con from 1.66852e-007 to 1.66852e-007
Heightened Def Con from 1.66852e-007 to 1.66852e-007
Heightened Def Con from 1.66852e-007 to 1.66852e-007
Heightened Def Con from 1.66852e-007 to 1.66852e-007
Heightened Def Con from 1.66852e-007 to 1.66852e-007
Heightened Def Con from 1.66852e-007 to 1.66852e-007
Heightened Def Con from 1.66852e-007 to 1.66852e-007
Heightened Def Con from 1.66852e-007 to 1.66852e-007
Heightened Def Con from 1.66852e-007 to 1.66852e-007
Heightened Def Con from 1.66852e-007 to 1.66852e-007
Heightened Def Con from 1.66852e-007 to 1.66852e-007
Heightened Def Con from 1.66852e-007 to 1.66852e-007
Heightened Def Con from 1.66852e-007 to 1.66852e-007
Heightened Def Con from 1.66852e-007 to 1.66852e-007
Heightened Def Con from 1.66852e-007 to 1.66852e-007
Heightened Def Con from 1.66852e-007 to 1.66852e-007
Heightened Def Con from 1.66852e-007 to 1.66852e-007
Heightened Def Con from 1.66852e-007 to 1.66852e-007
Heightened Def Con from 1.66852e-007 to 1.66852e-007
Heightened Def Con from 1.66852e-007 to 1.66852e-007
Heightened Def Con from 1.66852e-007 to 1.66852e-007
Heightened Def Con from 1.66852e-007 to 1.66852e-007
Heightened Def Con from 1.66852e-007 to 1.66852e-007
Heightened Def Con from 1.66852e-007 to 1.66852e-007
Heightened Def Con from 1.66852e-007 to 1.66852e-007
Heightened Def Con from 1.66852e-007 to 1.66852e-007
Heightened Def Con from 1.66852e-007 to 1.66852e-007
Heightened Def Con from 1.66852e-007 to 1.66852e-007
Heightened Def Con from 1.66852e-007 to 1.66852e-007
Heightened Def Con from 1.66852e-007 to 1.66852e-007
Heightened Def Con from 1.66852e-007 to 1.66852e-007
Heightened Def Con from 1.66852e-007 to 1.66852e-007
Heightened Def Con from 1.66852e-007 to 1.66852e-007
Heightened Def Con from 1.66852e-007 to 1.66852e-007
Heightened Def Con from 1.66852e-007 to 1.66852e-007
Heightened Def Con from 1.66852e-007 to 1.66852e-007
Heightened Def Con from 1.66852e-007 to 1.66852e-007
Heightened Def Con from 1.66852e-007 to 1.66852e-007
Heightened Def Con from 1.66852e-007 to 1.66852e-007
Heightened Def Con from 1.66852e-007 to 1.66852e-007
Heightened Def Con from 1.66852e-007 to 1.66852e-007
Heightened Def Con from 1.66852e-007 to 1.66852e-007
Heightened Def Con from 1.66852e-007 to 1.66852e-007
Heightened Def Con from 1.66852e-007 to 1.66852e-007
Heightened Def Con from 1.66852e-007 to 1.66852e-007
Heightened Def Con from 1.66852e-007 to 1.66852e-007
Heightened Def Con from 1.66852e-007 to 1.66852e-007
Heightened Def Con from 1.66852e-007 to 1.66852e-007
Heightened Def Con from 1.66852e-007 to 1.66852e-007
Heightened Def Con from 1.66852e-007 to 1.66852e-007
Heightened Def Con from 1.66852e-007 to 1.66852e-007
Heightened Def Con from 1.66852e-007 to 1.66852e-007
Heightened Def Con from 1.66852e-007 to 1.66852e-007
Heightened Def Con from 1.66852e-007 to 1.66852e-007
Heightened Def Con from 1.66852e-007 to 1.66852e-007
Heightened Def Con from 1.66852e-007 to 1.66852e-007
Heightened Def Con from 1.66852e-007 to 1.66852e-007
Heightened Def Con from 1.66852e-007 to 1.66852e-007
Heightened Def Con from 1.66852e-007 to 1.66852e-007
Heightened Def Con from 1.66852e-007 to 1.66852e-007
Heightened Def Con from 1.66852e-007 to 1.66852e-007
Heightened Def Con from 1.66852e-007 to 1.66852e-007
Heightened Def Con from 1.66852e-007 to 1.66852e-007
Heightened Def Con from 1.66852e-007 to 1.66852e-007
Heightened Def Con from 1.66852e-007 to 1.66852e-007
Heightened Def Con from 1.66852e-007 to 1.66852e-007
Heightened Def Con from 1.66852e-007 to 1.66852e-007
Heightened Def Con from 1.66852e-007 to 1.66852e-007
Heightened Def Con from 1.66852e-007 to 1.66852e-007
Heightened Def Con from 1.66852e-007 to 1.66852e-007
Heightened Def Con from 1.66852e-007 to 1.66852e-007
Heightened Def Con from 1.66852e-007 to 1.66852e-007
Heightened Def Con from 1.66852e-007 to 1.66852e-007
Heightened Def Con from 1.66852e-007 to 1.66852e-007
Heightened Def Con from 1.66852e-007 to 1.66852e-007
Heightened Def Con from 1.66852e-007 to 1.66852e-007
Heightened Def Con from 1.66852e-007 to 1.66852e-007
Heightened Def Con from 1.66852e-007 to 1.66852e-007
Heightened Def Con from 1.66852e-007 to 1.66852e-007
Heightened Def Con from 1.66852e-007 to 1.66852e-007
Heightened Def Con from 1.66852e-007 to 1.66852e-007
Heightened Def Con from 1.66852e-007 to 1.66852e-007
Heightened Def Con from 1.66852e-007 to 1.66852e-007
Heightened Def Con from 1.66852e-007 to 1.66852e-007
Heightened Def Con from 1.66852e-007 to 1.66852e-007
Heightened Def Con from 1.66852e-007 to 1.66852e-007
Heightened Def Con from 1.66852e-007 to 1.66852e-007
Heightened Def Con from 1.66852e-007 to 1.66852e-007
Heightened Def Con from 1.66852e-007 to 1.66852e-007
Heightened Def Con from 1.66852e-007 to 1.66852e-007
Heightened Def Con from 1.66852e-007 to 1.66852e-007
Heightened Def Con from 1.66852e-007 to 1.66852e-007
Heightened Def Con from 1.66852e-007 to 1.66852e-007
Heightened Def Con from 1.66852e-007 to 1.66852e-007
Heightened Def Con from 1.66852e-007 to 1.66852e-007
Heightened Def Con from 1.66852e-007 to 1.66852e-007
Heightened Def Con from 1.66852e-007 to 1.66852e-007
Heightened Def Con from 1.66852e-007 to 1.66852e-007
Heightened Def Con from 1.66852e-007 to 1.66852e-007
Heightened Def Con from 1.66852e-007 to 1.66852e-007
Heightened Def Con from 1.66852e-007 to 1.66852e-007
Heightened Def Con from 1.66852e-007 to 1.66852e-007
Heightened Def Con from 1.66852e-007 to 1.66852e-007
Heightened Def Con from 1.66852e-007 to 1.66852e-007
Heightened Def Con from 1.66852e-007 to 1.66852e-007
Heightened Def Con from 1.66852e-007 to 1.66852e-007
Heightened Def Con from 1.66852e-007 to 1.66852e-007
Heightened Def Con from 1.66852e-007 to 1.66852e-007
Heightened Def Con from 1.66852e-007 to 1.66852e-007
Heightened Def Con from 1.66852e-007 to 1.66852e-007
Heightened Def Con from 1.72419e-007 to 1.72419e-007
Heightened Def Con from 1.72419e-007 to 1.72419e-007
Heightened Def Con from 1.72419e-007 to 1.72419e-007
Heightened Def Con from 1.72419e-007 to 1.72419e-007
Heightened Def Con from 1.72419e-007 to 1.72419e-007
Heightened Def Con from 1.72419e-007 to 1.72419e-007
Heightened Def Con from 1.72419e-007 to 1.72419e-007
Heightened Def Con from 1.72419e-007 to 1.72419e-007
Heightened Def Con from 1.72419e-007 to 1.72419e-007
Heightened Def Con from 1.72419e-007 to 1.72419e-007
Heightened Def Con from 1.72419e-007 +to 1.72419e-007
Heightened Def Con from 1.72419e-007 to 1.72419e-007
Heightened Def Con from 1.78417e-007 to 1.78417e-007
Heightened Def Con from 1.78417e-007 to 1.78417e-007
Heightened Def Con from 1.78417e-007 to 1.78417e-007
Heightened Def Con from 1.78417e-007 to 1.78417e-007
Heightened Def Con from 1.78417e-007 to 1.78417e-007
Heightened Def Con from 1.78417e-007 to 1.78417e-007
Heightened Def Con from 1.78417e-007 to 1.78417e-007
Heightened Def Con from 1.78417e-007 to 1.78417e-007
Heightened Def Con from 1.78417e-007 to 1.78417e-007
Heightened Def Con from 1.78417e-007 to 1.78417e-007
Heightened Def Con from 1.78417e-007 to 1.78417e-007
Heightened Def Con from 1.78417e-007 to 1.78417e-007
Heightened Def Con from 1.78417e-007 to 1.78417e-007
Heightened Def Con from 1.78417e-007 to 1.78417e-007
Heightened Def Con from 1.78417e-007 to 1.78417e-007
Heightened Def Con from 1.78417e-007 to 1.78417e-007
Heightened Def Con from 1.78417e-007 to 1.78417e-007
Heightened Def Con from 1.78417e-007 to 1.78417e-007
Heightened Def Con from 1.78417e-007 to 1.78417e-007
Heightened Def Con from 1.78417e-007 to 1.78417e-007
Heightened Def Con from 1.78417e-007 to 1.78417e-007
Heightened Def Con from 1.78417e-007 to 1.78417e-007
Heightened Def Con from 1.78417e-007 to 1.78417e-007
Heightened Def Con from 1.78417e-007 to 1.78417e-007
Heightened Def Con from 1.78417e-007 to 1.78417e-007
Heightened Def Con from 1.78417e-007 to 1.78417e-007
Heightened Def Con from 1.78417e-007 to 1.78417e-007
Heightened Def Con from 1.78417e-007 to 1.78417e-007
Heightened Def Con from 1.78417e-007 to 1.78417e-007
Heightened Def Con from 1.78417e-007 to 1.78417e-007
Heightened Def Con from 1.78417e-007 to 1.78417e-007
Heightened Def Con from 1.78417e-007 to 1.78417e-007
Heightened Def Con from 1.78417e-007 to 1.78417e-007
Heightened Def Con from 1.78417e-007 to 1.78417e-007
Heightened Def Con from 1.78417e-007 to 1.78417e-007
Heightened Def Con from 1.78417e-007 to 1.78417e-007
Heightened Def Con from 1.78417e-007 to 1.78417e-007
Heightened Def Con from 1.78417e-007 to 1.78417e-007
Heightened Def Con from 1.78417e-007 to 1.78417e-007
Heightened Def Con from 1.78417e-007 to 1.78417e-007
Heightened Def Con from 1.78417e-007 to 1.78417e-007
Heightened Def Con from 1.78417e-007 to 1.78417e-007
Heightened Def Con from 1.78417e-007 to 1.78417e-007
Heightened Def Con from 1.78417e-007 to 1.78417e-007
Heightened Def Con from 1.78417e-007 to 1.78417e-007
Heightened Def Con from 1.78417e-007 to 1.78417e-007
Heightened Def Con from 1.78417e-007 to 1.78417e-007
Heightened Def Con from 1.78417e-007 to 1.78417e-007
Heightened Def Con from 1.78417e-007 to 1.78417e-007
Heightened Def Con from 1.78417e-007 to 1.78417e-007
Heightened Def Con from 1.78417e-007 to 1.78417e-007
Heightened Def Con from 1.78417e-007 to 1.78417e-007
Heightened Def Con from 1.78417e-007 to 1.78417e-007
Heightened Def Con from 1.78417e-007 to 1.78417e-007
Heightened Def Con from 1.78417e-007 to 1.78417e-007
Heightened Def Con from 1.78417e-007 to 1.78417e-007
Heightened Def Con from 1.78417e-007 to 1.78417e-007
Heightened Def Con from 1.78417e-007 to 1.78417e-007
Heightened Def Con from 1.78417e-007 to 1.78417e-007
Heightened Def Con from 1.78417e-007 to 1.78417e-007
Heightened Def Con from 1.78417e-007 to 1.78417e-007
Heightened Def Con from 1.78417e-007 to 1.78417e-007
Heightened Def Con from 1.78417e-007 to 1.78417e-007
Heightened Def Con from 1.78417e-007 to 1.78417e-007
Heightened Def Con from 1.78417e-007 to 1.78417e-007
Heightened Def Con from 1.78417e-007 to 1.78417e-007
Heightened Def Con from 1.78417e-007 to 1.78417e-007
Heightened Def Con from 1.78417e-007 to 1.78417e-007
Heightened Def Con from 1.78417e-007 to 1.78417e-007
Heightened Def Con from 1.78417e-007 to 1.78417e-007
Heightened Def Con from 1.78417e-007 to 1.78417e-007
Heightened Def Con from 1.78417e-007 to 1.78417e-007
Heightened Def Con from 1.78417e-007 to 1.78417e-007
Heightened Def Con from 1.78417e-007 to 1.78417e-007
Heightened Def Con from 1.78417e-007 to 1.78417e-007
Heightened Def Con from 1.78417e-007 to 1.78417e-007
Heightened Def Con from 1.78417e-007 to 1.78417e-007
Heightened Def Con from 1.78417e-007 to 1.78417e-007
Heightened Def Con from 1.78417e-007 to 1.78417e-007
Heightened Def Con from 1.78417e-007 to 1.78417e-007
Heightened Def Con from 1.78417e-007 to 1.78417e-007
Heightened Def Con from 1.78417e-007 to 1.78417e-007
Heightened Def Con from 1.78417e-007 to 1.78417e-007
Heightened Def Con from 1.78417e-007 to 1.78417e-007
Heightened Def Con from 1.78417e-007 to 1.78417e-007
Heightened Def Con from 1.78417e-007 to 1.78417e-007
Heightened Def Con from 1.78417e-007 to 1.78417e-007
Heightened Def Con from 1.78417e-007 to 1.78417e-007
Heightened Def Con from 1.78417e-007 to 1.78417e-007
Heightened Def Con from 1.78417e-007 to 1.78417e-007
Heightened Def Con from 1.78417e-007 to 1.78417e-007
Heightened Def Con from 1.78417e-007 to 1.78417e-007
Heightened Def Con from 1.78417e-007 to 1.78417e-007
Heightened Def Con from 1.78417e-007 to 1.78417e-007
Heightened Def Con from 1.78417e-007 to 1.78417e-007
Heightened Def Con from 1.78417e-007 to 1.78417e-007
Heightened Def Con from 1.78417e-007 to 1.78417e-007
Heightened Def Con from 1.78417e-007 to 1.78417e-007
Heightened Def Con from 1.78417e-007 to 1.78417e-007
Heightened Def Con from 1.78417e-007 to 1.78417e-007
Heightened Def Con from 1.78417e-007 to 1.78417e-007
Heightened Def Con from 1.78417e-007 to 1.78417e-007
Heightened Def Con from 1.78417e-007 to 1.78417e-007
Heightened Def Con from 1.78417e-007 to 1.78417e-007
Heightened Def Con from 1.78417e-007 to 1.78417e-007
Heightened Def Con from 1.78417e-007 to 1.78417e-007
Heightened Def Con from 1.78417e-007 to 1.78417e-007
Heightened Def Con from 1.78417e-007 to 1.78417e-007
Heightened Def Con from 1.78417e-007 to 1.78417e-007
Heightened Def Con from 1.78417e-007 to 1.78417e-007
Heightened Def Con from 1.78417e-007 to 1.78417e-007
Heightened Def Con from 1.78417e-007 to 1.78417e-007
Heightened Def Con from 1.78417e-007 to 1.78417e-007
Heightened Def Con from 1.78417e-007 to 1.78417e-007
Heightened Def Con from 1.78417e-007 to 1.78417e-007
Heightened Def Con from 1.78417e-007 to 1.78417e-007
Heightened Def Con from 1.78417e-007 to 1.78417e-007
Heightened Def Con from 1.78417e-007 to 1.78417e-007
Heightened Def Con from 1.78417e-007 to 1.78417e-007
Heightened Def Con from 1.78417e-007 to 1.78417e-007
Heightened Def Con from 1.78417e-007 to 1.78417e-007
Heightened Def Con from 1.78417e-007 to 1.78417e-007
Heightened Def Con from 1.78417e-007 to 1.78417e-007
Heightened Def Con from 1.78417e-007 to 1.78417e-007
Heightened Def Con from 1.78417e-007 +to 1.78417e-007

Date: Tue Dec 27 17:44:21 2022
Total elapsed time: 8.070 seconds.

tnom = 27
temp = 27
method = modified trap
totiter = 148533
traniter = 146205
tranpoints = 16045
accept = 5012
rejected = 11966
matrix size = 256
fillins = 400
solver = Alternate
Matrix Compiler1: 37.23 KB object code size  18.4/8.0/[4.0]
Matrix Compiler2: 29.62 KB object code size  6.8/7.3/[2.5]

