Circuit: * C:\Users\KB1LQ\OneDrive\Documents\GitHub\ADA4610-Transmipedance-Amplifier-REV-1.0\Simulation\TIA_Preamp_Linedriver.asc

Direct Newton iteration failed to find .op point.  (Use ".option noopiter" to skip.)
Starting Gmin stepping
Gmin = 10
vernier = 0.5
Gmin = 1.86414
vernier = 0.25
vernier = 0.125
vernier = 0.0625
vernier = 0.03125
Gmin = 1.98679
vernier = 0.015625
vernier = 0.0078125
Gmin = 1.95985
vernier = 0.0104167
vernier = 0.0138889
Gmin = 1.90294
vernier = 0.0185185
vernier = 0.0246913
Gmin = 1.81565
vernier = 0.0329218
Gmin = 1.68649
vernier = 0.0438957
vernier = 0.0585276
Gmin = 1.49042
vernier = 0.0780367
vernier = 0.104049
Gmin = 1.22473
vernier = 0.138732
vernier = 0.0693659
vernier = 0.034683
Gmin = 1.02345
vernier = 0.0173415
vernier = 0.00867074
vernier = 0.00433537
Gmin = 1.00808
vernier = 0.00216769
vernier = 0.00108384
Gmin = 1.00399
vernier = 0.000541921
Gmin = 1.0025
vernier = 0.000722562
vernier = 0.000541921
vernier = 0.000406441
Gmin = 1.00182
Gmin = 0
Gmin stepping failed

Starting source stepping with srcstepmethod=0
Source Step = 3.0303%
Source Step = 33.3333%
Source Step = 63.6364%
Source Step = 93.9394%
Source stepping succeeded in finding the operating point.

Heightened Def Con from 2.7339e-005 +to 2.7339e-005
Heightened Def Con from 7.75422e-005 ++++++++++++++++++++to 7.75432e-005
Heightened Def Con from 7.75432e-005 +++++++++++++to 7.75443e-005
Heightened Def Con from 7.75443e-005 +++++++++++++to 7.75447e-005
Heightened Def Con from 7.75447e-005 +++++++++++++to 7.75448e-005
Heightened Def Con from 7.75448e-005 +++++++++++++to 7.75449e-005
Heightened Def Con from 7.75449e-005 +++++++++++++to 7.75452e-005
Heightened Def Con from 7.75452e-005 +++++++++++to 7.75482e-005
Heightened Def Con from 7.75482e-005 +++++++++to 7.75494e-005
Heightened Def Con from 7.75494e-005 +++++++++to 7.75524e-005
Heightened Def Con from 7.75524e-005 +++++to 7.75534e-005
Heightened Def Con from 7.75534e-005 to 7.75545e-005
Heightened Def Con from 0.000103083 +to 0.000103083
Heightened Def Con from 0.000127664 to 0.000127664
Heightened Def Con from 0.000127664 +to 0.000127664
Heightened Def Con from 0.000152989 to 0.000152989
Heightened Def Con from 0.000227782 to 0.000227782
Heightened Def Con from 0.000227782 to 0.000227782
Heightened Def Con from 0.000227782 to 0.000227782
Heightened Def Con from 0.000227782 to 0.000227782
Heightened Def Con from 0.000227782 to 0.000227782
Heightened Def Con from 0.000227782 +to 0.000227782
Heightened Def Con from 0.000227782 +to 0.000227782
Heightened Def Con from 0.000227782 to 0.000227782
Heightened Def Con from 0.000227782 to 0.000227782
Heightened Def Con from 0.000227782 to 0.000227782
Heightened Def Con from 0.000227782 to 0.000227782
Heightened Def Con from 0.000227782 to 0.000227782
Heightened Def Con from 0.000227782 to 0.000227782
Heightened Def Con from 0.000227782 to 0.000227782
Heightened Def Con from 0.000227782 to 0.000227782
Heightened Def Con from 0.000227782 to 0.000227782
Heightened Def Con from 0.000227782 to 0.000227782
Heightened Def Con from 0.000227782 to 0.000227782
Heightened Def Con from 0.000227782 to 0.000227782
Heightened Def Con from 0.000227782 to 0.000227782
Heightened Def Con from 0.000227782 to 0.000227782
Heightened Def Con from 0.000227782 to 0.000227782
Heightened Def Con from 0.000227782 to 0.000227782
Heightened Def Con from 0.000227782 to 0.000227782
Heightened Def Con from 0.000227782 to 0.000227782
Heightened Def Con from 0.000227782 to 0.000227782
Heightened Def Con from 0.000227782 to 0.000227782
Heightened Def Con from 0.000227782 to 0.000227782
Heightened Def Con from 0.000227782 to 0.000227782
Heightened Def Con from 0.000227782 to 0.000227782
Heightened Def Con from 0.000227782 to 0.000227782
Heightened Def Con from 0.000227782 to 0.000227782
Heightened Def Con from 0.000227782 to 0.000227782
Heightened Def Con from 0.000227782 to 0.000227782
Heightened Def Con from 0.000227782 to 0.000227782
Heightened Def Con from 0.000227782 to 0.000227782
Heightened Def Con from 0.000227782 to 0.000227782
Heightened Def Con from 0.000227782 to 0.000227782
Heightened Def Con from 0.000227782 to 0.000227782
Heightened Def Con from 0.000227782 to 0.000227782
Heightened Def Con from 0.000227782 to 0.000227782
Heightened Def Con from 0.000227782 to 0.000227782
Heightened Def Con from 0.000227782 to 0.000227782
Heightened Def Con from 0.000227782 to 0.000227782
Heightened Def Con from 0.000227782 to 0.000227782
Heightened Def Con from 0.000227782 to 0.000227782
Heightened Def Con from 0.000227782 to 0.000227782
Heightened Def Con from 0.000227782 to 0.000227782
Heightened Def Con from 0.000227782 to 0.000227782
Heightened Def Con from 0.000227782 to 0.000227782
Heightened Def Con from 0.000227782 to 0.000227782
Heightened Def Con from 0.000227782 to 0.000227782
Heightened Def Con from 0.000227782 to 0.000227782
Heightened Def Con from 0.000227782 to 0.000227782
Heightened Def Con from 0.000227782 to 0.000227782
Heightened Def Con from 0.000227782 to 0.000227782
Heightened Def Con from 0.000227782 to 0.000227782
Heightened Def Con from 0.000227782 ++to 0.000227782
Heightened Def Con from 0.000227782 ++to 0.000227782
Heightened Def Con from 0.000227782 to 0.000227782
Heightened Def Con from 0.000227782 to 0.000227782
Heightened Def Con from 0.000227782 ++to 0.000227782
Heightened Def Con from 0.000227782 to 0.000227782
Heightened Def Con from 0.000227782 to 0.000227782
Heightened Def Con from 0.000227782 to 0.000227782
Heightened Def Con from 0.000227782 to 0.000227782
Heightened Def Con from 0.000227782 to 0.000227782
Heightened Def Con from 0.000227782 to 0.000227782
Heightened Def Con from 0.000227782 to 0.000227782
Heightened Def Con from 0.000227782 to 0.000227782
Heightened Def Con from 0.000227782 to 0.000227782
Heightened Def Con from 0.000227782 to 0.000227782
Heightened Def Con from 0.000227782 to 0.000227782
Heightened Def Con from 0.000227782 to 0.000227782
Heightened Def Con from 0.000227782 to 0.000227782
Heightened Def Con from 0.000227782 to 0.000227782
Heightened Def Con from 0.000227782 to 0.000227782
Heightened Def Con from 0.000227782 to 0.000227782
Heightened Def Con from 0.000227782 to 0.000227782
Heightened Def Con from 0.000227782 to 0.000227782
Heightened Def Con from 0.000227782 to 0.000227782
Heightened Def Con from 0.000227782 to 0.000227782
Heightened Def Con from 0.000227782 to 0.000227782
Heightened Def Con from 0.000227782 to 0.000227782
Heightened Def Con from 0.000227782 to 0.000227782
Heightened Def Con from 0.000227782 ++++++++++++++++++++to 0.000227783
Heightened Def Con from 0.000227783 +++++++++++++to 0.000227784
Heightened Def Con from 0.000227784 +++++++++++++to 0.000227784
Heightened Def Con from 0.000227784 +++++++++++++to 0.000227784
Heightened Def Con from 0.000227784 +++++++++++++to 0.000227784
Heightened Def Con from 0.000227784 +++++++++++++to 0.000227784
Heightened Def Con from 0.000227784 +++++++++++++to 0.000227784
Heightened Def Con from 0.000227784 +++++++++++++to 0.000227784
Heightened Def Con from 0.000227784 +++++++++++++to 0.000227784
Heightened Def Con from 0.000227784 +++++++++++++to 0.000227784
Heightened Def Con from 0.000227784 +++++++++++++to 0.000227784
Heightened Def Con from 0.000227784 +++++++++++++to 0.000227784
Heightened Def Con from 0.000227784 +++++++++++++to 0.000227785
Heightened Def Con from 0.000227785 +++++++++++to 0.000227788
Heightened Def Con from 0.000227788 +++++++++to 0.000227789
Heightened Def Con from 0.000227789 +++++++++to 0.000227792
Heightened Def Con from 0.000252898 +++++++++++++++++++++to 0.000252898
Heightened Def Con from 0.000252898 ++++++++++to 0.000252898
Heightened Def Con from 0.000252898 +++++++to 0.000252898
Heightened Def Con from 0.000252898 +++++++to 0.000252898
Heightened Def Con from 0.000252898 +++++++to 0.000252898
Heightened Def Con from 0.000252898 +++++++to 0.000252898
Heightened Def Con from 0.000252898 +++++++to 0.000252898
Heightened Def Con from 0.000252898 +++++++to 0.000252898
Heightened Def Con from 0.000252898 +++++++to 0.000252898
Heightened Def Con from 0.000252898 +++++++to 0.000252898
Heightened Def Con from 0.000252898 +++++++to 0.000252898
Heightened Def Con from 0.000252898 +++++++to 0.000252898
Heightened Def Con from 0.000252898 +++++++to 0.000252898
Heightened Def Con from 0.000252898 +++++++to 0.000252898
Heightened Def Con from 0.000252898 +++++++to 0.000252898
Heightened Def Con from 0.000252898 +++++++to 0.000252898
Heightened Def Con from 0.000252898 +++++++to 0.000252898
Heightened Def Con from 0.000252898 +++++++to 0.000252898
Heightened Def Con from 0.000252898 +++++++to 0.000252898
Heightened Def Con from 0.000252898 +++++++to 0.000252898
Heightened Def Con from 0.000252898 +++++++to 0.000252898
Heightened Def Con from 0.000252898 +++++++to 0.000252898
Heightened Def Con from 0.000252898 +++++++to 0.000252898
Heightened Def Con from 0.000252898 +++++++to 0.000252898
Heightened Def Con from 0.000252898 +++++++to 0.000252898
Heightened Def Con from 0.000252898 +++++++to 0.000252898
Heightened Def Con from 0.000252898 +++++++to 0.000252898
Heightened Def Con from 0.000252898 +++++++to 0.000252898
Heightened Def Con from 0.000252898 +++++++to 0.000252898
Heightened Def Con from 0.000252898 +++++++to 0.000252898
Heightened Def Con from 0.000252898 +++++++to 0.000252898
Heightened Def Con from 0.000252898 +++++++to 0.000252898
Heightened Def Con from 0.000252898 +++++++to 0.000252898
Heightened Def Con from 0.000252898 +++++++to 0.000252898
Heightened Def Con from 0.000252898 +++++++to 0.000252898
Heightened Def Con from 0.000252898 +++++++to 0.000252898
Heightened Def Con from 0.000252898 +++++++to 0.000252898
Heightened Def Con from 0.000252898 +++++++to 0.000252898
Heightened Def Con from 0.000252898 +++++++to 0.000252898
Heightened Def Con from 0.000252898 +++++++to 0.000252898
Heightened Def Con from 0.000252898 +++++++to 0.000252898
Heightened Def Con from 0.000252898 +++++++to 0.000252898
Heightened Def Con from 0.000252898 +++++++to 0.000252898
Heightened Def Con from 0.000252898 +++++++to 0.000252898
Heightened Def Con from 0.000252898 +++++++to 0.000252898
Heightened Def Con from 0.000252898 +++++++to 0.000252898
Heightened Def Con from 0.000252898 +++++++to 0.000252898
Heightened Def Con from 0.000252898 +++++++to 0.000252898
Heightened Def Con from 0.000252898 +++++++to 0.000252898
Heightened Def Con from 0.000252898 +++++++to 0.000252898
Heightened Def Con from 0.000252898 +++++++to 0.000252898
Heightened Def Con from 0.000252898 +++++++to 0.000252898
Heightened Def Con from 0.000252898 +++++++to 0.000252898
Heightened Def Con from 0.000252898 +++++++to 0.000252898
Heightened Def Con from 0.000252898 +++++++to 0.000252898
Heightened Def Con from 0.000252898 +++++++to 0.000252898
Heightened Def Con from 0.000252898 +++++++to 0.000252898
Heightened Def Con from 0.000252898 +++++++to 0.000252898
Heightened Def Con from 0.000252898 +++++++to 0.000252898
Heightened Def Con from 0.000252898 +++++++to 0.000252898
Heightened Def Con from 0.000252898 +++++++to 0.000252898
Heightened Def Con from 0.000252898 +++++++to 0.000252898
Heightened Def Con from 0.000252898 +++++++to 0.000252898
Heightened Def Con from 0.000252898 +++++++to 0.000252898
Heightened Def Con from 0.000252898 +++++++to 0.000252898
Heightened Def Con from 0.000252898 +++++++to 0.000252898
Heightened Def Con from 0.000252898 +++++++to 0.000252898
Heightened Def Con from 0.000252898 +++++++to 0.000252898
Heightened Def Con from 0.000252898 +++++++to 0.000252898
Heightened Def Con from 0.000252898 +++++++to 0.000252898
Heightened Def Con from 0.000252898 +++++++to 0.000252898
Heightened Def Con from 0.000252898 +++++++to 0.000252898
Heightened Def Con from 0.000252898 +++++++to 0.000252898
Heightened Def Con from 0.000252898 +++++++to 0.000252898
Heightened Def Con from 0.000252898 +++++++to 0.000252898
Heightened Def Con from 0.000252898 +++++++to 0.000252898
Heightened Def Con from 0.000252898 +++++++to 0.000252898
Heightened Def Con from 0.000252898 +++++++to 0.000252898
Heightened Def Con from 0.000252898 +++++++to 0.000252898
Heightened Def Con from 0.000252898 +++++++to 0.000252898
Heightened Def Con from 0.000252898 +++++++to 0.000252898
Heightened Def Con from 0.000252898 +++++++to 0.000252898
Heightened Def Con from 0.000252898 +++++++to 0.000252898
Heightened Def Con from 0.000252898 +++++++to 0.000252898
Heightened Def Con from 0.000252898 +++++++to 0.000252898
Heightened Def Con from 0.000252898 +++++++to 0.000252898
Heightened Def Con from 0.000252898 +++++++to 0.000252898
Heightened Def Con from 0.000252898 +++++++to 0.000252898
Heightened Def Con from 0.000252898 +++++++to 0.000252898
Heightened Def Con from 0.000252898 +++++++to 0.000252898
Heightened Def Con from 0.000252898 +++++++to 0.000252898
Heightened Def Con from 0.000252898 +++++++to 0.000252898
Heightened Def Con from 0.000252898 +++++++to 0.000252898
Heightened Def Con from 0.000252898 +++++++to 0.000252898
Heightened Def Con from 0.000252898 +++++++to 0.000252898
Heightened Def Con from 0.000252898 +++++++to 0.000252898
Heightened Def Con from 0.000252898 +++++++to 0.000252898
Heightened Def Con from 0.000252898 +++++++to 0.000252898
Heightened Def Con from 0.000252898 +++++++to 0.000252898
Heightened Def Con from 0.000252898 +++++++to 0.000252898
Heightened Def Con from 0.000252898 +++++++to 0.000252898
Heightened Def Con from 0.000252898 +++++++to 0.000252898
Heightened Def Con from 0.000252898 +++++++to 0.000252898
Heightened Def Con from 0.000252898 +++++++to 0.000252898
Heightened Def Con from 0.000252898 +++++++to 0.000252898
Heightened Def Con from 0.000252898 +++++++to 0.000252898
Heightened Def Con from 0.000252898 +++++++to 0.000252898
Heightened Def Con from 0.000252898 +++++++to 0.000252898
Heightened Def Con from 0.000252898 +++++++to 0.000252898
Heightened Def Con from 0.000252898 +++++++to 0.000252898
Heightened Def Con from 0.000252898 +++++++to 0.000252898
Heightened Def Con from 0.000252898 +++++++to 0.000252898
Heightened Def Con from 0.000252898 +++++++to 0.000252898
Heightened Def Con from 0.000252898 +++++++to 0.000252898
Heightened Def Con from 0.000252898 +++++++to 0.000252898
Heightened Def Con from 0.000252898 +++++++to 0.000252898
Heightened Def Con from 0.000252898 +++++++to 0.000252898
Heightened Def Con from 0.000252898 +++++++to 0.000252898
Heightened Def Con from 0.000252898 +++++++to 0.000252898
Heightened Def Con from 0.000252898 +++++++to 0.000252898
Heightened Def Con from 0.000252898 +++++++to 0.000252898
Heightened Def Con from 0.000252898 +++++++to 0.000252898
Heightened Def Con from 0.000252898 +++++++to 0.000252898
Heightened Def Con from 0.000252898 +++++++to 0.000252898
Heightened Def Con from 0.000252898 +++++++to 0.000252898
Heightened Def Con from 0.000252898 +++++++to 0.000252898
Heightened Def Con from 0.000252898 +++++++to 0.000252898
Heightened Def Con from 0.000252898 +++++++to 0.000252898
Heightened Def Con from 0.000252898 +++++++to 0.000252898
Heightened Def Con from 0.000252898 +++++++to 0.000252898
Heightened Def Con from 0.000252898 +++++++to 0.000252898
Heightened Def Con from 0.000252898 +++++++to 0.000252898
Heightened Def Con from 0.000252898 +++++++to 0.000252898
Heightened Def Con from 0.000252898 +++++++to 0.000252898
Heightened Def Con from 0.000252898 +++++++to 0.000252898
Heightened Def Con from 0.000252898 +++++++to 0.000252898
Heightened Def Con from 0.000252898 +++++++to 0.000252898
Heightened Def Con from 0.000252898 +++++++to 0.000252898
Heightened Def Con from 0.000252898 +++++++to 0.000252898
Heightened Def Con from 0.000252898 +++++++to 0.000252898
Heightened Def Con from 0.000252898 +++++++to 0.000252898
Heightened Def Con from 0.000252898 +++++++to 0.000252898
Heightened Def Con from 0.000252898 +++++++to 0.000252898
Heightened Def Con from 0.000252898 +++++++to 0.000252898
Heightened Def Con from 0.000252898 +++++++to 0.000252898
Heightened Def Con from 0.000252898 +++++++to 0.000252898
Heightened Def Con from 0.000252898 +++++++to 0.000252898
Heightened Def Con from 0.000252898 +++++++to 0.000252898
Heightened Def Con from 0.000252898 +++++++to 0.000252898
Heightened Def Con from 0.000252898 +++++++to 0.000252898
Heightened Def Con from 0.000252898 +++++++to 0.000252898
Heightened Def Con from 0.000252898 +++++++to 0.000252898
Heightened Def Con from 0.000252898 +++++++to 0.000252898
Heightened Def Con from 0.000252898 +++++++to 0.000252898
Heightened Def Con from 0.000252898 +++++++to 0.000252898
Heightened Def Con from 0.000252898 +++++++to 0.000252898
Heightened Def Con from 0.000252898 +++++++to 0.000252898
Heightened Def Con from 0.000252898 +++++++to 0.000252898
Heightened Def Con from 0.000252898 +++++++to 0.000252898
Heightened Def Con from 0.000252898 +++++++to 0.000252898
Heightened Def Con from 0.000252898 +++++++to 0.000252898
Heightened Def Con from 0.000252898 +++++++to 0.000252898
Heightened Def Con from 0.000252898 +++++++to 0.000252898
Heightened Def Con from 0.000252898 +++++++to 0.000252898
Heightened Def Con from 0.000252898 +++++++to 0.000252898
Heightened Def Con from 0.000252898 +++++++to 0.000252898
Heightened Def Con from 0.000252898 +++++++to 0.000252898
Heightened Def Con from 0.000252898 +++++++to 0.000252898
Heightened Def Con from 0.000252898 +++++++to 0.000252898
Heightened Def Con from 0.000252898 +++++++to 0.000252898
Heightened Def Con from 0.000252898 +++++++to 0.000252898
Heightened Def Con from 0.000252898 +++++++to 0.000252898
Heightened Def Con from 0.000252898 +++++++to 0.000252898
Heightened Def Con from 0.000252898 +++++++to 0.000252898
Heightened Def Con from 0.000252898 +++++++to 0.000252898
Heightened Def Con from 0.000252898 +++++++to 0.000252898
Heightened Def Con from 0.000252898 +++++++to 0.000252898
Heightened Def Con from 0.000252898 +++++++to 0.000252898
Heightened Def Con from 0.000252898 +++++++to 0.000252898
Heightened Def Con from 0.000252898 +++++++to 0.000252898
Heightened Def Con from 0.000252898 +++++++to 0.000252898
Heightened Def Con from 0.000252898 +++++++to 0.000252898
Heightened Def Con from 0.000252898 +++++++to 0.000252898
Heightened Def Con from 0.000252898 +++++++to 0.000252898
Heightened Def Con from 0.000252898 +++++++to 0.000252898
Heightened Def Con from 0.000252898 +++++++to 0.000252898
Heightened Def Con from 0.000252898 +++++++to 0.000252898
Heightened Def Con from 0.000252898 +++++++to 0.000252898
Heightened Def Con from 0.000252898 +++++++to 0.000252898
Heightened Def Con from 0.000252898 +++++++to 0.000252898
Heightened Def Con from 0.000252898 +++++++to 0.000252898
Heightened Def Con from 0.000252898 +++++++to 0.000252898
Heightened Def Con from 0.000252898 +++++++to 0.000252898
Heightened Def Con from 0.000252898 +++++++to 0.000252898
Heightened Def Con from 0.000252898 +++++++to 0.000252898
Heightened Def Con from 0.000252898 +++++++to 0.000252898
Heightened Def Con from 0.000252898 +++++++to 0.000252898
Heightened Def Con from 0.000252898 +++++++to 0.000252898
Heightened Def Con from 0.000252898 +++++++to 0.000252898
Heightened Def Con from 0.000252898 +++++++to 0.000252898
Heightened Def Con from 0.000252898 +++++++to 0.000252898
Heightened Def Con from 0.000252898 +++++++to 0.000252898
Heightened Def Con from 0.000252898 +++++++to 0.000252898
Heightened Def Con from 0.000252898 +++++++to 0.000252898
Heightened Def Con from 0.000252898 +++++++to 0.000252898
Heightened Def Con from 0.000252898 +++++++to 0.000252898
Heightened Def Con from 0.000252898 +++++++to 0.000252898
Heightened Def Con from 0.000252898 +++++++to 0.000252898
Heightened Def Con from 0.000252898 +++++++to 0.000252898
Heightened Def Con from 0.000252898 +++++++to 0.000252898
Heightened Def Con from 0.000252898 +++++++to 0.000252898
Heightened Def Con from 0.000252898 +++++++to 0.000252898
Heightened Def Con from 0.000252898 +++++++to 0.000252898
Heightened Def Con from 0.000252898 +++++++to 0.000252898
Heightened Def Con from 0.000252898 +++++++to 0.000252898
Heightened Def Con from 0.000252898 +++++++to 0.000252898
Heightened Def Con from 0.000252898 +++++++to 0.000252898
Heightened Def Con from 0.000252898 +++++++to 0.000252898
Heightened Def Con from 0.000252898 +++++++to 0.000252898
Heightened Def Con from 0.000252898 +++++++to 0.000252898
Heightened Def Con from 0.000252898 +++++++to 0.000252898
Heightened Def Con from 0.000252898 +++++++to 0.000252898
Heightened Def Con from 0.000252898 +++++++to 0.000252898
Heightened Def Con from 0.000252898 +++++++to 0.000252898
Heightened Def Con from 0.000252898 +++++++to 0.000252898
Heightened Def Con from 0.000252898 +++++++to 0.000252898
Heightened Def Con from 0.000252898 +++++++to 0.000252898
Heightened Def Con from 0.000252898 +++++++to 0.000252898
Heightened Def Con from 0.000252898 +++++++to 0.000252898
Heightened Def Con from 0.000252898 +++++++to 0.000252898
Heightened Def Con from 0.000252898 +++++++to 0.000252898
Heightened Def Con from 0.000252898 +++++++to 0.000252898
Heightened Def Con from 0.000252898 +++++++to 0.000252898
Heightened Def Con from 0.000252898 +++++++to 0.000252898
Heightened Def Con from 0.000252898 +++++++to 0.000252898
Heightened Def Con from 0.000252898 +++++++to 0.000252898
Heightened Def Con from 0.000252898 +++++++to 0.000252898
Heightened Def Con from 0.000252898 +++++++to 0.000252898
Heightened Def Con from 0.000252898 +++++++to 0.000252898
Heightened Def Con from 0.000252898 +++++++to 0.000252898
Heightened Def Con from 0.000252898 +++++++to 0.000252898
Heightened Def Con from 0.000252898 +++++++to 0.000252898
Heightened Def Con from 0.000252898 +++++++to 0.000252898
Heightened Def Con from 0.000252898 +++++++to 0.000252898
Heightened Def Con from 0.000252898 +++++++to 0.000252898
Heightened Def Con from 0.000252898 +++++++to 0.000252898
Heightened Def Con from 0.000252898 +++++++to 0.000252898
Heightened Def Con from 0.000252898 +++++++to 0.000252898
Heightened Def Con from 0.000252898 +++++++to 0.000252898
Heightened Def Con from 0.000252898 +++++++to 0.000252898
Heightened Def Con from 0.000252898 +++++++to 0.000252898
Heightened Def Con from 0.000252898 +++++++to 0.000252898
Heightened Def Con from 0.000252898 +++++++to 0.000252898
Heightened Def Con from 0.000252898 +++++++to 0.000252898
Heightened Def Con from 0.000252898 +++++++to 0.000252898
Heightened Def Con from 0.000252898 +++++++to 0.000252898
Heightened Def Con from 0.000252898 +++++++to 0.000252898
Heightened Def Con from 0.000252898 +++++++to 0.000252898
Heightened Def Con from 0.000252898 +++++++to 0.000252898
Heightened Def Con from 0.000252898 +++++++to 0.000252898
Heightened Def Con from 0.000252898 +++++++to 0.000252898
Heightened Def Con from 0.000252898 +++++++to 0.000252898
Heightened Def Con from 0.000252898 +++++++to 0.000252898
Heightened Def Con from 0.000252898 +++++++to 0.000252898
Heightened Def Con from 0.000252898 +++++++to 0.000252898
Heightened Def Con from 0.000252898 +++++++to 0.000252898
Heightened Def Con from 0.000252898 +++++++to 0.000252898
Heightened Def Con from 0.000252898 +++++++to 0.000252898
Heightened Def Con from 0.000252898 +++++++to 0.000252898
Heightened Def Con from 0.000252898 +++++++to 0.000252898
Heightened Def Con from 0.000252898 +++++++to 0.000252898
Heightened Def Con from 0.000252898 +++++++to 0.000252898
Heightened Def Con from 0.000252898 +++++++to 0.000252898
Heightened Def Con from 0.000252898 +++++++to 0.000252898
Heightened Def Con from 0.000252898 +++++++to 0.000252898
Heightened Def Con from 0.000252898 +++++++to 0.000252898
Heightened Def Con from 0.000252898 +++++++to 0.000252898
Heightened Def Con from 0.000252898 +++++++to 0.000252898
Heightened Def Con from 0.000252898 +++++++to 0.000252898
Heightened Def Con from 0.000252898 +++++++to 0.000252898
Heightened Def Con from 0.000252898 +++++++to 0.000252898
Heightened Def Con from 0.000252898 +++++++to 0.000252898
Heightened Def Con from 0.000252898 +++++++to 0.000252898
Heightened Def Con from 0.000252898 +++++++to 0.000252898
Heightened Def Con from 0.000252898 +++++++to 0.000252898
Heightened Def Con from 0.000252898 +++++++to 0.000252898
Heightened Def Con from 0.000252898 +++++++to 0.000252898
Heightened Def Con from 0.000252898 +++++++to 0.000252898
Heightened Def Con from 0.000252898 +++++++to 0.000252898
Heightened Def Con from 0.000252898 +++++++to 0.000252898
Heightened Def Con from 0.000252898 +++++++to 0.000252898
Heightened Def Con from 0.000252898 +++++++to 0.000252898
Heightened Def Con from 0.000252898 +++++++to 0.000252898
Heightened Def Con from 0.000252898 +++++++to 0.000252898
Heightened Def Con from 0.000252898 +++++++to 0.000252898
Heightened Def Con from 0.000252898 +++++++to 0.000252898
Heightened Def Con from 0.000252898 +++++++to 0.000252898
Heightened Def Con from 0.000252898 +++++++to 0.000252898
Heightened Def Con from 0.000252898 +++++++to 0.000252898
Heightened Def Con from 0.000252898 +++++++to 0.000252898
Heightened Def Con from 0.000252898 +++++++to 0.000252898
Heightened Def Con from 0.000252898 +++++++to 0.000252898
Heightened Def Con from 0.000252898 +++++++to 0.000252898
Heightened Def Con from 0.000252898 +++++++to 0.000252898
Heightened Def Con from 0.000252898 +++++++to 0.000252898
Heightened Def Con from 0.000252898 +++++++to 0.000252898
Heightened Def Con from 0.000252898 +++++++to 0.000252898
Heightened Def Con from 0.000252898 +++++++to 0.000252898
Heightened Def Con from 0.000252898 +++++++to 0.000252898
Heightened Def Con from 0.000252898 +++++++to 0.000252898
Heightened Def Con from 0.000252898 +++++++to 0.000252898
Heightened Def Con from 0.000252898 +++++++to 0.000252898
Heightened Def Con from 0.000252898 +++++++to 0.000252898
Heightened Def Con from 0.000252898 +++++++to 0.000252898
Heightened Def Con from 0.000252898 +++++++to 0.000252898
Heightened Def Con from 0.000252898 +++++++to 0.000252898
Heightened Def Con from 0.000252898 +++++++to 0.000252898
Heightened Def Con from 0.000252898 +++++++to 0.000252898
Heightened Def Con from 0.000252898 +++++++to 0.000252898
Heightened Def Con from 0.000252898 +++++++to 0.000252898
Heightened Def Con from 0.000252898 +++++++to 0.000252898
Heightened Def Con from 0.000252898 +++++++to 0.000252898
Heightened Def Con from 0.000252898 +++++++to 0.000252898
Heightened Def Con from 0.000252898 +++++++to 0.000252898
Heightened Def Con from 0.000252898 +++++++to 0.000252898
Heightened Def Con from 0.000252898 +++++++to 0.000252898
Heightened Def Con from 0.000252898 +++++++to 0.000252898
Heightened Def Con from 0.000252898 +++++++to 0.000252898
Heightened Def Con from 0.000252898 +++++++to 0.000252898
Heightened Def Con from 0.000252898 +++++++to 0.000252898
Heightened Def Con from 0.000252898 +++++++to 0.000252898
Heightened Def Con from 0.000252898 +++++++to 0.000252898
Heightened Def Con from 0.000252898 +++++++to 0.000252898
Heightened Def Con from 0.000252898 +++++++to 0.000252898
Heightened Def Con from 0.000252898 +++++++to 0.000252898
Heightened Def Con from 0.000252898 +++++++to 0.000252898
Heightened Def Con from 0.000252898 +++++++to 0.000252898
Heightened Def Con from 0.000252898 +++++++to 0.000252898
Heightened Def Con from 0.000252898 +++++++to 0.000252898
Heightened Def Con from 0.000252898 +++++++to 0.000252898
Heightened Def Con from 0.000252898 +++++++to 0.000252898
Heightened Def Con from 0.000252898 +++++++to 0.000252898
Heightened Def Con from 0.000252898 +++++++to 0.000252898
Heightened Def Con from 0.000252898 +++++++to 0.000252898
Heightened Def Con from 0.000252898 +++++++to 0.000252898
Heightened Def Con from 0.000252898 +++++++to 0.000252898
Heightened Def Con from 0.000252898 +++++++to 0.000252898
Heightened Def Con from 0.000252898 +++++++to 0.000252898
Heightened Def Con from 0.000252898 +++++++to 0.000252898
Heightened Def Con from 0.000252898 +++++++to 0.000252898
Heightened Def Con from 0.000252898 +++++++to 0.000252898
Heightened Def Con from 0.000252898 +++++++to 0.000252898
Heightened Def Con from 0.000252898 +++++++to 0.000252898
Heightened Def Con from 0.000252898 +++++++to 0.000252898
Heightened Def Con from 0.000252898 +++++++to 0.000252898
Heightened Def Con from 0.000252898 +++++++to 0.000252898
Heightened Def Con from 0.000252898 +++++++to 0.000252898
Heightened Def Con from 0.000252898 +++++++to 0.000252898
Heightened Def Con from 0.000252898 +++++++to 0.000252898
Heightened Def Con from 0.000252898 +++++++to 0.000252898
Heightened Def Con from 0.000252898 +++++++to 0.000252898
Heightened Def Con from 0.000252898 +++++++to 0.000252898
Heightened Def Con from 0.000252898 +++++++to 0.000252898
Heightened Def Con from 0.000252898 +++++++to 0.000252898
Heightened Def Con from 0.000252898 +++++++to 0.000252898
Heightened Def Con from 0.000252898 +++++++to 0.000252898
Heightened Def Con from 0.000252898 +++++++to 0.000252898
Heightened Def Con from 0.000252898 +++++++to 0.000252898
Heightened Def Con from 0.000252898 +++++++to 0.000252898
Heightened Def Con from 0.000252898 +++++++to 0.000252898
Heightened Def Con from 0.000252898 +++++++to 0.000252898
Heightened Def Con from 0.000252898 +++++++to 0.000252898
Heightened Def Con from 0.000252898 +++++++to 0.000252898
Heightened Def Con from 0.000252898 +++++++to 0.000252898
Heightened Def Con from 0.000252898 +++++++to 0.000252898
Heightened Def Con from 0.000252898 +++++++to 0.000252898
Heightened Def Con from 0.000252898 +++++++to 0.000252898
Heightened Def Con from 0.000252898 +++++++to 0.000252898
Heightened Def Con from 0.000252898 +++++++to 0.000252898
Heightened Def Con from 0.000252898 +++++++to 0.000252898
Heightened Def Con from 0.000252898 +++++++to 0.000252898
Heightened Def Con from 0.000252898 +++++++to 0.000252898
Heightened Def Con from 0.000252898 +++++++to 0.000252898
Heightened Def Con from 0.000252898 +++++++to 0.000252898
Heightened Def Con from 0.000252898 +++++++to 0.000252898
Heightened Def Con from 0.000252898 +++++++to 0.000252898
Heightened Def Con from 0.000252898 +++++++to 0.000252898
Heightened Def Con from 0.000252898 +++++++to 0.000252898
Heightened Def Con from 0.000252898 +++++++to 0.000252898
Heightened Def Con from 0.000252898 +++++++to 0.000252898
Heightened Def Con from 0.000252898 +++++++to 0.000252898
Heightened Def Con from 0.000252898 +++++++to 0.000252898
Heightened Def Con from 0.000252898 +++++++to 0.000252898
Heightened Def Con from 0.000252898 +++++++to 0.000252898
Heightened Def Con from 0.000252898 +++++++to 0.000252898
Heightened Def Con from 0.000252898 +++++++to 0.000252898
Heightened Def Con from 0.000252898 +++++++to 0.000252898
Heightened Def Con from 0.000252898 +++++++to 0.000252898
Heightened Def Con from 0.000252898 +++++++to 0.000252898
Heightened Def Con from 0.000252898 +++++++to 0.000252898
Heightened Def Con from 0.000252898 +++++++to 0.000252898
Heightened Def Con from 0.000252898 +++++++to 0.000252898
Heightened Def Con from 0.000252898 +++++++to 0.000252898
Heightened Def Con from 0.000252898 +++++++to 0.000252898
Heightened Def Con from 0.000252898 +++++++to 0.000252898
Heightened Def Con from 0.000252898 +++++++to 0.000252898
Heightened Def Con from 0.000252898 +++++++to 0.000252898
Heightened Def Con from 0.000252898 +++++++to 0.000252898
Heightened Def Con from 0.000252898 +++++++to 0.000252898
Heightened Def Con from 0.000252898 +++++++to 0.000252898
Heightened Def Con from 0.000252898 +++++++to 0.000252898
Heightened Def Con from 0.000252898 +++++++to 0.000252898
Heightened Def Con from 0.000252898 +++++++to 0.000252898
Heightened Def Con from 0.000252898 +++++++to 0.000252898
Heightened Def Con from 0.000252898 +++++++to 0.000252898
Heightened Def Con from 0.000252898 +++++++to 0.000252898
Heightened Def Con from 0.000252898 +++++++to 0.000252898
Heightened Def Con from 0.000252898 +++++++to 0.000252898
Heightened Def Con from 0.000252898 +++++++to 0.000252898
Heightened Def Con from 0.000252898 +++++++to 0.000252898
Heightened Def Con from 0.000252898 +++++++to 0.000252898
Heightened Def Con from 0.000252898 +++++++to 0.000252898
Heightened Def Con from 0.000252898 +++++++to 0.000252898
Heightened Def Con from 0.000252898 +++++++to 0.000252898
Heightened Def Con from 0.000252898 +++++++to 0.000252898
Heightened Def Con from 0.000252898 +++++++to 0.000252898
Heightened Def Con from 0.000252898 +++++++to 0.000252898
Heightened Def Con from 0.000252898 +++++++to 0.000252898
Heightened Def Con from 0.000252898 +++++++to 0.000252898
Heightened Def Con from 0.000252898 +++++++to 0.000252898
Heightened Def Con from 0.000252898 +++++++to 0.000252898
Heightened Def Con from 0.000252898 +++++++to 0.000252898
Heightened Def Con from 0.000252898 +++++++to 0.000252898
Heightened Def Con from 0.000252898 +++++++to 0.000252898
Heightened Def Con from 0.000252898 +++++++to 0.000252898
Heightened Def Con from 0.000252898 +++++++to 0.000252898
Heightened Def Con from 0.000252898 +++++++to 0.000252898
Heightened Def Con from 0.000252898 +++++++to 0.000252898
Heightened Def Con from 0.000252898 +++++++to 0.000252898
Heightened Def Con from 0.000252898 +++++++to 0.000252898
Heightened Def Con from 0.000252898 +++++++to 0.000252898
Heightened Def Con from 0.000252898 +++++++to 0.000252898
Heightened Def Con from 0.000252898 +++++++to 0.000252898
Heightened Def Con from 0.000252898 +++++++to 0.000252898
Heightened Def Con from 0.000252898 +++++++to 0.000252898
Heightened Def Con from 0.000252898 +++++++to 0.000252898
Heightened Def Con from 0.000252898 +++++++to 0.000252898
Heightened Def Con from 0.000252898 +++++++to 0.000252898
Heightened Def Con from 0.000252898 +++++++to 0.000252898
Heightened Def Con from 0.000252898 +++++++to 0.000252898
Heightened Def Con from 0.000252898 +++++++to 0.000252898
Heightened Def Con from 0.000252898 +++++++to 0.000252898
Heightened Def Con from 0.000252898 +++++++to 0.000252898
Heightened Def Con from 0.000252898 +++++++to 0.000252898
Heightened Def Con from 0.000252898 +++++++to 0.000252898
Heightened Def Con from 0.000252898 +++++++to 0.000252898
Heightened Def Con from 0.000252898 +++++++to 0.000252898
Heightened Def Con from 0.000252898 +++++++to 0.000252898
Heightened Def Con from 0.000252898 +++++++to 0.000252898
Heightened Def Con from 0.000252898 +++++++to 0.000252898
Heightened Def Con from 0.000252898 +++++++to 0.000252898
Heightened Def Con from 0.000252898 +++++++to 0.000252898
Heightened Def Con from 0.000252898 +++++++to 0.000252898
Heightened Def Con from 0.000252898 +++++++to 0.000252898
Heightened Def Con from 0.000252898 +++++++to 0.000252898
Heightened Def Con from 0.000252898 +++++++to 0.000252898
Heightened Def Con from 0.000252898 +++++++to 0.000252898
Heightened Def Con from 0.000252898 +++++++to 0.000252898
Heightened Def Con from 0.000252898 +++++++to 0.000252898
Heightened Def Con from 0.000252898 +++++++to 0.000252898
Heightened Def Con from 0.000252898 +++++++to 0.000252898
Heightened Def Con from 0.000252898 +++++++to 0.000252898
Heightened Def Con from 0.000252898 +++++++to 0.000252898
Heightened Def Con from 0.000252898 +++++++to 0.000252898
Heightened Def Con from 0.000252898 +++++++to 0.000252898
Heightened Def Con from 0.000252898 +++++++to 0.000252898
Heightened Def Con from 0.000252898 +++++++to 0.000252898
Heightened Def Con from 0.000252898 +++++++to 0.000252898
Heightened Def Con from 0.000252898 +++++++to 0.000252898
Heightened Def Con from 0.000252898 +++++++to 0.000252898
Heightened Def Con from 0.000252898 +++++++to 0.000252898
Heightened Def Con from 0.000252898 +++++++to 0.000252898
Heightened Def Con from 0.000252898 +++++++to 0.000252898
Heightened Def Con from 0.000252898 +++++++to 0.000252898
Heightened Def Con from 0.000252898 +++++++to 0.000252898
Heightened Def Con from 0.000252898 +++++++to 0.000252898
Heightened Def Con from 0.000252898 +++++++to 0.000252898
Heightened Def Con from 0.000252898 +++++++to 0.000252898
Heightened Def Con from 0.000252898 +++++++to 0.000252898
Heightened Def Con from 0.000252898 +++++++to 0.000252898
Heightened Def Con from 0.000252898 +++++++to 0.000252898
Heightened Def Con from 0.000252898 +++++++to 0.000252898
Heightened Def Con from 0.000252898 +++++++to 0.000252898
Heightened Def Con from 0.000252898 +++++++to 0.000252898
Heightened Def Con from 0.000252898 +++++++to 0.000252898
Heightened Def Con from 0.000252898 +++++++to 0.000252898
Heightened Def Con from 0.000252898 +++++++to 0.000252898
Heightened Def Con from 0.000252898 +++++++to 0.000252898
Heightened Def Con from 0.000252898 +++++++to 0.000252898
Heightened Def Con from 0.000252898 +++++++to 0.000252898
Heightened Def Con from 0.000252898 +++++++to 0.000252898
Heightened Def Con from 0.000252898 +++++++to 0.000252898
Heightened Def Con from 0.000252898 +++++++to 0.000252898
Heightened Def Con from 0.000252898 +++++++to 0.000252898
Heightened Def Con from 0.000252898 +++++++to 0.000252898
Heightened Def Con from 0.000252898 +++++++to 0.000252898
Heightened Def Con from 0.000252898 +++++++to 0.000252898
Heightened Def Con from 0.000252898 +++++++to 0.000252898
Heightened Def Con from 0.000252898 +++++++to 0.000252898
Heightened Def Con from 0.000252898 +++++++to 0.000252898
Heightened Def Con from 0.000252898 +++++++to 0.000252898
Heightened Def Con from 0.000252898 +++++++to 0.000252898
Heightened Def Con from 0.000252898 +++++++to 0.000252898
Heightened Def Con from 0.000252898 +++++++to 0.000252898
Heightened Def Con from 0.000252898 +++++++to 0.000252898
Heightened Def Con from 0.000252898 +++++++to 0.000252898
Heightened Def Con from 0.000252898 +++++++to 0.000252898
Heightened Def Con from 0.000252898 +++++++to 0.000252898
Heightened Def Con from 0.000252898 +++++++to 0.000252898
Heightened Def Con from 0.000252898 +++++++to 0.000252898
Heightened Def Con from 0.000252898 +++++++to 0.000252898
Heightened Def Con from 0.000252898 +++++++to 0.000252898
Heightened Def Con from 0.000252898 +++++++to 0.000252898
Heightened Def Con from 0.000252898 +++++++to 0.000252898
Heightened Def Con from 0.000252898 +++++++to 0.000252898
Heightened Def Con from 0.000252898 +++++++to 0.000252898
Heightened Def Con from 0.000252898 +++++++to 0.000252898
Heightened Def Con from 0.000252898 +++++++to 0.000252898
Heightened Def Con from 0.000252898 +++++++to 0.000252898
Heightened Def Con from 0.000252898 +++++++to 0.000252898
Heightened Def Con from 0.000252898 +++++++to 0.000252898
Heightened Def Con from 0.000252898 +++++++to 0.000252898
Heightened Def Con from 0.000252898 +++++++to 0.000252898
Heightened Def Con from 0.000252898 +++++++to 0.000252898
Heightened Def Con from 0.000252898 +++++++to 0.000252898
Heightened Def Con from 0.000252898 +++++++to 0.000252898
Heightened Def Con from 0.000252898 +++++++to 0.000252898
Heightened Def Con from 0.000252898 +++++++to 0.000252898
Heightened Def Con from 0.000252898 +++++++to 0.000252898
Heightened Def Con from 0.000252898 +++++++to 0.000252898
Heightened Def Con from 0.000252898 +++++++to 0.000252898
Heightened Def Con from 0.000252898 +++++++to 0.000252898
Heightened Def Con from 0.000252898 +++++++to 0.000252898
Heightened Def Con from 0.000252898 +++++++to 0.000252898
Heightened Def Con from 0.000252898 +++++++to 0.000252898
Heightened Def Con from 0.000252898 +++++++to 0.000252898
Heightened Def Con from 0.000252898 +++++++to 0.000252898
Heightened Def Con from 0.000252898 +++++++to 0.000252898
Heightened Def Con from 0.000252898 +++++++to 0.000252898
Heightened Def Con from 0.000252898 +++++++to 0.000252898
Heightened Def Con from 0.000252898 +++++++to 0.000252898
Heightened Def Con from 0.000252898 +++++++to 0.000252898
Heightened Def Con from 0.000252898 +++++++to 0.000252898
Heightened Def Con from 0.000252898 +++++++to 0.000252898
Heightened Def Con from 0.000252898 +++++++to 0.000252898
Heightened Def Con from 0.000252898 +++++++to 0.000252898
Heightened Def Con from 0.000252898 +++++++to 0.000252898
Heightened Def Con from 0.000252898 +++++++to 0.000252898
Heightened Def Con from 0.000252898 +++++++to 0.000252898
Heightened Def Con from 0.000252898 +++++++to 0.000252898
Heightened Def Con from 0.000252898 +++++++to 0.000252898
Heightened Def Con from 0.000252898 +++++++to 0.000252898
Heightened Def Con from 0.000252898 +++++++to 0.000252898
Heightened Def Con from 0.000252898 +++++++to 0.000252898
Heightened Def Con from 0.000252898 +++++++to 0.000252898
Heightened Def Con from 0.000252898 +++++++to 0.000252898
Heightened Def Con from 0.000252898 +++++++to 0.000252898
Heightened Def Con from 0.000252898 +++++++to 0.000252898
Heightened Def Con from 0.000252898 +++++++to 0.000252898
Heightened Def Con from 0.000252898 +++++++to 0.000252898
Heightened Def Con from 0.000252898 +++++++to 0.000252898
Heightened Def Con from 0.000252898 +++++++to 0.000252898
Heightened Def Con from 0.000252898 +++++++to 0.000252898
Heightened Def Con from 0.000252898 +++++++to 0.000252898
Heightened Def Con from 0.000252898 +++++++to 0.000252898
Heightened Def Con from 0.000252898 +++++++to 0.000252898
Heightened Def Con from 0.000252898 +++++++to 0.000252898
Heightened Def Con from 0.000252898 +++++++to 0.000252898
Heightened Def Con from 0.000252898 +++++++to 0.000252898
Heightened Def Con from 0.000252898 +++++++to 0.000252898
Heightened Def Con from 0.000252898 +++++++to 0.000252898
Heightened Def Con from 0.000252898 +++++++to 0.000252898
Heightened Def Con from 0.000252898 +++++++to 0.000252898
Heightened Def Con from 0.000252898 +++++++to 0.000252898
Heightened Def Con from 0.000252898 +++++++to 0.000252898
Heightened Def Con from 0.000252898 +++++++to 0.000252898
Heightened Def Con from 0.000252898 +++++++to 0.000252898
Heightened Def Con from 0.000252898 +++++++to 0.000252898
Heightened Def Con from 0.000252898 +++++++to 0.000252898
Heightened Def Con from 0.000252898 +++++++to 0.000252898
Heightened Def Con from 0.000252898 +++++++to 0.000252898
Heightened Def Con from 0.000252898 +++++++to 0.000252898
Heightened Def Con from 0.000252898 +++++++to 0.000252898
Heightened Def Con from 0.000252898 +++++++to 0.000252898
Heightened Def Con from 0.000252898 +++++++to 0.000252898
Heightened Def Con from 0.000252898 +++++++to 0.000252898
Heightened Def Con from 0.000252898 +++++++to 0.000252898
Heightened Def Con from 0.000252898 +++++++to 0.000252898
Heightened Def Con from 0.000252898 +++++++to 0.000252898
Heightened Def Con from 0.000252898 +++++++to 0.000252898
Heightened Def Con from 0.000252898 +++++++to 0.000252898
Heightened Def Con from 0.000252898 +++++++to 0.000252898
Heightened Def Con from 0.000252898 +++++++to 0.000252898
Heightened Def Con from 0.000252898 +++++++to 0.000252898
Heightened Def Con from 0.000252898 +++++++to 0.000252898
Heightened Def Con from 0.000252898 +++++++to 0.000252898
Heightened Def Con from 0.000252898 +++++++to 0.000252898
Heightened Def Con from 0.000252898 +++++++to 0.000252898
Heightened Def Con from 0.000252898 +++++++to 0.000252898
Heightened Def Con from 0.000252898 +++++++to 0.000252898
Heightened Def Con from 0.000252898 +++++++to 0.000252898
Heightened Def Con from 0.000252898 +++++++to 0.000252898
Heightened Def Con from 0.000252898 +++++++to 0.000252898
Heightened Def Con from 0.000252898 +++++++to 0.000252898
Heightened Def Con from 0.000252898 +++++++to 0.000252898
Heightened Def Con from 0.000252898 +++++++to 0.000252898
Heightened Def Con from 0.000252898 +++++++to 0.000252898
Heightened Def Con from 0.000252898 +++++++to 0.000252898
Heightened Def Con from 0.000252898 +++++++to 0.000252898
Heightened Def Con from 0.000252898 +++++++to 0.000252898
Heightened Def Con from 0.000252898 +++++++to 0.000252898
Heightened Def Con from 0.000252898 +++++++to 0.000252898
Heightened Def Con from 0.000252898 +++++++to 0.000252898
Heightened Def Con from 0.000252898 +++++++to 0.000252898
Heightened Def Con from 0.000252898 +++++++to 0.000252898
Heightened Def Con from 0.000252898 +++++++to 0.000252898
Heightened Def Con from 0.000252898 +++++++to 0.000252898
Heightened Def Con from 0.000252898 +++++++to 0.000252898
Heightened Def Con from 0.000252898 +++++++to 0.000252898
Heightened Def Con from 0.000252898 +++++++to 0.000252898
Heightened Def Con from 0.000252898 +++++++to 0.000252898
Heightened Def Con from 0.000252898 +++++++to 0.000252898
Heightened Def Con from 0.000252898 +++++++to 0.000252898
Heightened Def Con from 0.000252898 +++++++to 0.000252898
Heightened Def Con from 0.000252898 +++++++to 0.000252898
Heightened Def Con from 0.000252898 +++++++to 0.000252898
Heightened Def Con from 0.000252898 +++++++to 0.000252898
Heightened Def Con from 0.000252898 +++++++to 0.000252898
Heightened Def Con from 0.000252898 +++++++to 0.000252898
Heightened Def Con from 0.000252898 +++++++to 0.000252898
Heightened Def Con from 0.000252898 +++++++to 0.000252898
Heightened Def Con from 0.000252898 +++++++to 0.000252898
Heightened Def Con from 0.000252898 +++++++to 0.000252898
Heightened Def Con from 0.000252898 +++++++to 0.000252898
Heightened Def Con from 0.000252898 +++++++to 0.000252898
Heightened Def Con from 0.000252898 +++++++to 0.000252898
Heightened Def Con from 0.000252898 +++++++to 0.000252898
Heightened Def Con from 0.000252898 +++++++to 0.000252898
Heightened Def Con from 0.000252898 +++++++to 0.000252898
Heightened Def Con from 0.000252898 +++++++to 0.000252898
Heightened Def Con from 0.000252898 +++++++to 0.000252898
Heightened Def Con from 0.000252898 +++++++to 0.000252898
Heightened Def Con from 0.000252898 +++++++to 0.000252898
Heightened Def Con from 0.000252898 +++++++to 0.000252898
Heightened Def Con from 0.000252898 +++++++to 0.000252898
Heightened Def Con from 0.000252898 +++++++to 0.000252898
Heightened Def Con from 0.000252898 +++++++to 0.000252898
Heightened Def Con from 0.000252898 +++++++to 0.000252898
Heightened Def Con from 0.000252898 +++++++to 0.000252898
Heightened Def Con from 0.000252898 +++++++to 0.000252898
Heightened Def Con from 0.000252898 +++++++to 0.000252898
Heightened Def Con from 0.000252898 +++++++to 0.000252898
Heightened Def Con from 0.000252898 +++++++to 0.000252898
Heightened Def Con from 0.000252898 +++++++to 0.000252898
Heightened Def Con from 0.000252898 +++++++to 0.000252898
Heightened Def Con from 0.000252898 +++++++to 0.000252898
Heightened Def Con from 0.000252898 +++++++to 0.000252898
Heightened Def Con from 0.000252898 +++++++to 0.000252898
Heightened Def Con from 0.000252898 +++++++to 0.000252898
Heightened Def Con from 0.000252898 +++++++to 0.000252898
Heightened Def Con from 0.000252898 +++++++to 0.000252898
Heightened Def Con from 0.000252898 +++++++to 0.000252898
Heightened Def Con from 0.000252898 +++++++to 0.000252898
Heightened Def Con from 0.000252898 +++++++to 0.000252898
Heightened Def Con from 0.000252898 +++++++to 0.000252898
Heightened Def Con from 0.000252898 +++++++to 0.000252898
Heightened Def Con from 0.000252898 +++++++to 0.000252898
Heightened Def Con from 0.000252898 +++++++to 0.000252898
Heightened Def Con from 0.000252898 +++++++to 0.000252898
Heightened Def Con from 0.000252898 +++++++to 0.000252898
Heightened Def Con from 0.000252898 +++++++to 0.000252898
Heightened Def Con from 0.000252898 +++++++to 0.000252898
Heightened Def Con from 0.000252898 +++++++to 0.000252898
Heightened Def Con from 0.000252898 +++++++to 0.000252898
Heightened Def Con from 0.000252898 +++++++to 0.000252898
Heightened Def Con from 0.000252898 +++++++to 0.000252898
Heightened Def Con from 0.000252898 +++++++to 0.000252898
Heightened Def Con from 0.000252898 +++++++to 0.000252898
Heightened Def Con from 0.000252898 +++++++to 0.000252898
Heightened Def Con from 0.000252898 +++++++to 0.000252898
Heightened Def Con from 0.000252898 +++++++to 0.000252898
Heightened Def Con from 0.000252898 +++++++to 0.000252898
Heightened Def Con from 0.000252898 +++++++to 0.000252898
Heightened Def Con from 0.000252898 +++++++to 0.000252898
Heightened Def Con from 0.000252898 +++++++to 0.000252898
Heightened Def Con from 0.000252898 +++++++to 0.000252898
Heightened Def Con from 0.000252898 +++++++to 0.000252898
Heightened Def Con from 0.000252898 +++++++to 0.000252898
Heightened Def Con from 0.000252898 +++++++to 0.000252898
Heightened Def Con from 0.000252898 +++++++to 0.000252898
Heightened Def Con from 0.000252898 +++++++to 0.000252898
Heightened Def Con from 0.000252898 +++++++to 0.000252898
Heightened Def Con from 0.000252898 +++++++to 0.000252898
Heightened Def Con from 0.000252898 +++++++to 0.000252898
Heightened Def Con from 0.000252898 +++++++to 0.000252898
Heightened Def Con from 0.000252898 +++++++to 0.000252898
Heightened Def Con from 0.000252898 +++++++to 0.000252898
Heightened Def Con from 0.000252898 +++++++to 0.000252898
Heightened Def Con from 0.000252898 +++++++to 0.000252898
Heightened Def Con from 0.000252898 +++++++to 0.000252898
Heightened Def Con from 0.000252898 +++++++to 0.000252898
Heightened Def Con from 0.000252898 +++++++to 0.000252898
Heightened Def Con from 0.000252898 +++++++to 0.000252898
Heightened Def Con from 0.000252898 +++++++to 0.000252898
Heightened Def Con from 0.000252898 +++++++to 0.000252898
Heightened Def Con from 0.000252898 +++++++to 0.000252898
Heightened Def Con from 0.000252898 +++++++to 0.000252898
Heightened Def Con from 0.000252898 +++++++to 0.000252898
Heightened Def Con from 0.000252898 +++++++to 0.000252898
Heightened Def Con from 0.000252898 +++++++to 0.000252898
Heightened Def Con from 0.000252898 +++++++to 0.000252898
Heightened Def Con from 0.000252898 +++++++to 0.000252898
Heightened Def Con from 0.000252898 +++++++to 0.000252898
Heightened Def Con from 0.000252898 +++++++to 0.000252898
Heightened Def Con from 0.000252898 +++++++to 0.000252898
Heightened Def Con from 0.000252898 +++++++to 0.000252898
Heightened Def Con from 0.000252898 +++++++to 0.000252898
Heightened Def Con from 0.000252898 +++++++to 0.000252898
Heightened Def Con from 0.000252898 +++++++to 0.000252898
Heightened Def Con from 0.000252898 +++++++to 0.000252898
Heightened Def Con from 0.000252898 +++++++to 0.000252898
Heightened Def Con from 0.000252898 +++++++to 0.000252898
Heightened Def Con from 0.000252898 +++++++to 0.000252898
Heightened Def Con from 0.000252898 +++++++to 0.000252898
Heightened Def Con from 0.000252898 +++++++to 0.000252898
Heightened Def Con from 0.000252898 +++++++to 0.000252898
Heightened Def Con from 0.000252898 +++++++to 0.000252898
Heightened Def Con from 0.000252898 +++++++to 0.000252898
Heightened Def Con from 0.000252898 +++++++to 0.000252898
Heightened Def Con from 0.000252898 +++++++to 0.000252898
Heightened Def Con from 0.000252898 +++++++to 0.000252898
Heightened Def Con from 0.000252898 +++++++to 0.000252898
Heightened Def Con from 0.000252898 +++++++to 0.000252898
Heightened Def Con from 0.000252898 +++++++to 0.000252898
Heightened Def Con from 0.000252898 +++++++to 0.000252898
Heightened Def Con from 0.000252898 +++++++to 0.000252898
Heightened Def Con from 0.000252898 +++++++to 0.000252898
Heightened Def Con from 0.000252898 +++++++to 0.000252898
Heightened Def Con from 0.000252898 +++++++to 0.000252898
Heightened Def Con from 0.000252898 +++++++to 0.000252898
Heightened Def Con from 0.000252898 +++++++to 0.000252898
Heightened Def Con from 0.000252898 +++++++to 0.000252898
Heightened Def Con from 0.000252898 +++++++to 0.000252898
Heightened Def Con from 0.000252898 +++++++to 0.000252898
Heightened Def Con from 0.000252898 +++++++to 0.000252898
Heightened Def Con from 0.000252898 +++++++to 0.000252898
Heightened Def Con from 0.000252898 +++++++to 0.000252898
Heightened Def Con from 0.000252898 +++++++to 0.000252898
Heightened Def Con from 0.000252898 +++++++to 0.000252898
Heightened Def Con from 0.000252898 +++++++to 0.000252898
Heightened Def Con from 0.000252898 +++++++to 0.000252898
Heightened Def Con from 0.000252898 +++++++to 0.000252898
Heightened Def Con from 0.000252898 +++++++to 0.000252898
Heightened Def Con from 0.000252898 +++++++to 0.000252898
Heightened Def Con from 0.000252898 +++++++to 0.000252898
Heightened Def Con from 0.000252898 +++++++to 0.000252898
Heightened Def Con from 0.000252898 +++++++to 0.000252898
Heightened Def Con from 0.000252898 +++++++to 0.000252898
Heightened Def Con from 0.000252898 +++++++to 0.000252898
Heightened Def Con from 0.000252898 +++++++to 0.000252898
Heightened Def Con from 0.000252898 +++++++to 0.000252898
Heightened Def Con from 0.000252898 +++++++to 0.000252898
Heightened Def Con from 0.000252898 +++++++to 0.000252898
Heightened Def Con from 0.000252898 +++++++to 0.000252898
Heightened Def Con from 0.000252898 +++++++to 0.000252898
Heightened Def Con from 0.000252898 +++++++to 0.000252898
Heightened Def Con from 0.000252898 +++++++to 0.000252898
Heightened Def Con from 0.000252898 +++++++to 0.000252898
Heightened Def Con from 0.000252898 +++++++to 0.000252898
Heightened Def Con from 0.000252898 +++++++to 0.000252898
Heightened Def Con from 0.000252898 +++++++to 0.000252898
Heightened Def Con from 0.000252898 +++++++to 0.000252898
Heightened Def Con from 0.000252898 +++++++to 0.000252898
Heightened Def Con from 0.000252898 +++++++to 0.000252898
Heightened Def Con from 0.000252898 +++++++to 0.000252898
Heightened Def Con from 0.000252898 +++++++to 0.000252898
Heightened Def Con from 0.000252898 +++++++to 0.000252898
Heightened Def Con from 0.000252898 +++++++to 0.000252898
Heightened Def Con from 0.000252898 +++++++to 0.000252898
Heightened Def Con from 0.000252898 +++++++to 0.000252898
Heightened Def Con from 0.000252898 +++++++to 0.000252898
Heightened Def Con from 0.000252898 +++++++to 0.000252898
Heightened Def Con from 0.000252898 +++++++to 0.000252898
Heightened Def Con from 0.000252898 +++++++to 0.000252898
Heightened Def Con from 0.000252898 +++++++to 0.000252898
Heightened Def Con from 0.000252898 +++++++to 0.000252898
Heightened Def Con from 0.000252898 +++++++to 0.000252898
Heightened Def Con from 0.000252898 +++++++to 0.000252898
Heightened Def Con from 0.000252898 +++++++to 0.000252898
Heightened Def Con from 0.000252898 +++++++to 0.000252898
Heightened Def Con from 0.000252898 +++++++to 0.000252898
Heightened Def Con from 0.000252898 +++++++to 0.000252898
Heightened Def Con from 0.000252898 +++++++to 0.000252898
Heightened Def Con from 0.000252898 +++++++to 0.000252898
Heightened Def Con from 0.000252898 +++++++to 0.000252898
Heightened Def Con from 0.000252898 +++++++to 0.000252898
Heightened Def Con from 0.000252898 +++++++to 0.000252898
Heightened Def Con from 0.000252898 +++++++to 0.000252898
Heightened Def Con from 0.000252898 +++++++to 0.000252898
Heightened Def Con from 0.000252898 +++++++to 0.000252898
Heightened Def Con from 0.000252898 +++++++to 0.000252898
Heightened Def Con from 0.000252898 +++++++to 0.000252898
Heightened Def Con from 0.000252898 +++++++to 0.000252898
Heightened Def Con from 0.000252898 +++++++to 0.000252898
Heightened Def Con from 0.000252898 +++++++to 0.000252898
Heightened Def Con from 0.000252898 +++++++to 0.000252898
Heightened Def Con from 0.000252898 +++++++to 0.000252898
Heightened Def Con from 0.000252898 +++++++to 0.000252898
Heightened Def Con from 0.000252898 +++++++to 0.000252898
Heightened Def Con from 0.000252898 +++++++to 0.000252898
Heightened Def Con from 0.000252898 +++++++to 0.000252898
Heightened Def Con from 0.000252898 +++++++to 0.000252898
Heightened Def Con from 0.000252898 +++++++to 0.000252898
Heightened Def Con from 0.000252898 +++++++to 0.000252898
Heightened Def Con from 0.000252898 +++++++to 0.000252898
Heightened Def Con from 0.000252898 +++++++to 0.000252898
Heightened Def Con from 0.000252898 +++++++to 0.000252898
Heightened Def Con from 0.000252898 +++++++to 0.000252898
Heightened Def Con from 0.000252898 +++++++to 0.000252898
Heightened Def Con from 0.000252898 +++++++to 0.000252898
Heightened Def Con from 0.000252898 +++++++to 0.000252898
Heightened Def Con from 0.000252898 +++++++to 0.000252898
Heightened Def Con from 0.000252898 +++++++to 0.000252898
Heightened Def Con from 0.000252898 +++++++to 0.000252898
Heightened Def Con from 0.000252898 +++++++to 0.000252898
Heightened Def Con from 0.000252898 +++++++to 0.000252898
Heightened Def Con from 0.000252898 +++++++to 0.000252898
Heightened Def Con from 0.000252898 +++++++to 0.000252898
Heightened Def Con from 0.000252898 +++++++to 0.000252898
Heightened Def Con from 0.000252898 +++++++to 0.000252898
Heightened Def Con from 0.000252898 +++++++to 0.000252898
Heightened Def Con from 0.000252898 +++++++to 0.000252898
Heightened Def Con from 0.000252898 +++++++to 0.000252898
Heightened Def Con from 0.000252898 +++++++to 0.000252898
Heightened Def Con from 0.000252898 +++++++to 0.000252898
Heightened Def Con from 0.000252898 +++++++to 0.000252898
Heightened Def Con from 0.000252898 +++++++to 0.000252898
Heightened Def Con from 0.000252898 +++++++to 0.000252898
Heightened Def Con from 0.000252898 +++++++to 0.000252898
Heightened Def Con from 0.000252898 +++++++to 0.000252898
Heightened Def Con from 0.000252898 +++++++to 0.000252898
Heightened Def Con from 0.000252898 +++++++to 0.000252898
Heightened Def Con from 0.000252898 +++++++to 0.000252898
Heightened Def Con from 0.000252898 +++++++to 0.000252898
Heightened Def Con from 0.000252898 +++++++to 0.000252898
Heightened Def Con from 0.000252898 +++++++to 0.000252898
Heightened Def Con from 0.000252898 +++++++to 0.000252898
Heightened Def Con from 0.000252898 +++++++to 0.000252898
Heightened Def Con from 0.000252898 +++++++to 0.000252898
Heightened Def Con from 0.000252898 +++++++to 0.000252898
Heightened Def Con from 0.000252898 +++++++to 0.000252898
Heightened Def Con from 0.000252898 +++++++to 0.000252898
Heightened Def Con from 0.000252898 +++++++to 0.000252898
Heightened Def Con from 0.000252898 +++++++to 0.000252898
Heightened Def Con from 0.000252898 +++++++to 0.000252898
Heightened Def Con from 0.000252898 +++++++to 0.000252898
Heightened Def Con from 0.000252898 +++++++to 0.000252898
Heightened Def Con from 0.000252898 +++++++to 0.000252898
Heightened Def Con from 0.000252898 +++++++to 0.000252898
Heightened Def Con from 0.000252898 +++++++to 0.000252898
Heightened Def Con from 0.000252898 +++++++to 0.000252898
Heightened Def Con from 0.000252898 +++++++to 0.000252898
Heightened Def Con from 0.000252898 +++++++to 0.000252898
Heightened Def Con from 0.000252898 +++++++to 0.000252898
Heightened Def Con from 0.000252898 +++++++to 0.000252898
Heightened Def Con from 0.000252898 +++++++to 0.000252898
Heightened Def Con from 0.000252898 +++++++to 0.000252898
Heightened Def Con from 0.000252898 +++++++to 0.000252898
Heightened Def Con from 0.000252898 +++++++to 0.000252898
Heightened Def Con from 0.000252898 +++++++to 0.000252898
Heightened Def Con from 0.000252898 +++++++to 0.000252898
Heightened Def Con from 0.000252898 +++++++to 0.000252898
Heightened Def Con from 0.000252898 +++++++to 0.000252898
Heightened Def Con from 0.000252898 +++++++to 0.000252898
Heightened Def Con from 0.000252898 +++++++to 0.000252898
Heightened Def Con from 0.000252898 +++++++to 0.000252898
Heightened Def Con from 0.000252898 +++++++to 0.000252898
Heightened Def Con from 0.000252898 +++++++to 0.000252898
Heightened Def Con from 0.000252898 +++++++to 0.000252898
Heightened Def Con from 0.000252898 +++++++to 0.000252898
Heightened Def Con from 0.000252898 +++++++to 0.000252898
Heightened Def Con from 0.000252898 +++++++to 0.000252898
Heightened Def Con from 0.000252898 +++++++to 0.000252898
Heightened Def Con from 0.000252898 +++++++to 0.000252898
Heightened Def Con from 0.000252898 +++++++to 0.000252898
Heightened Def Con from 0.000252898 +++++++to 0.000252898
Heightened Def Con from 0.000252898 +++++++to 0.000252898
Heightened Def Con from 0.000252898 +++++++to 0.000252898
Heightened Def Con from 0.000252898 +++++++to 0.000252898
Heightened Def Con from 0.000252898 +++++++to 0.000252898
Heightened Def Con from 0.000252898 +++++++to 0.000252898
Heightened Def Con from 0.000252898 +++++++to 0.000252898
Heightened Def Con from 0.000252898 +++++++to 0.000252898
Heightened Def Con from 0.000252898 +++++++to 0.000252898
Heightened Def Con from 0.000252898 +++++++to 0.000252898
Heightened Def Con from 0.000252898 +++++++to 0.000252898
Heightened Def Con from 0.000252898 +++++++to 0.000252898
Heightened Def Con from 0.000252898 +++++++to 0.000252898
Heightened Def Con from 0.000252898 +++++++to 0.000252898
Heightened Def Con from 0.000252898 +++++++to 0.000252898
Heightened Def Con from 0.000252898 +++++++to 0.000252898
Heightened Def Con from 0.000252898 +++++++to 0.000252898
Heightened Def Con from 0.000252898 +++++++to 0.000252898
Heightened Def Con from 0.000252898 +++++++to 0.000252898
Heightened Def Con from 0.000252898 +++++++to 0.000252898
Heightened Def Con from 0.000252898 +++++++to 0.000252898
Heightened Def Con from 0.000252898 +++++++to 0.000252898
Heightened Def Con from 0.000252898 +++++++to 0.000252898
Heightened Def Con from 0.000252898 +++++++to 0.000252898
Heightened Def Con from 0.000252898 +++++++to 0.000252898
Heightened Def Con from 0.000252898 +++++++to 0.000252898
Heightened Def Con from 0.000252898 +++++++to 0.000252898
Heightened Def Con from 0.000252898 +++++++to 0.000252898
Heightened Def Con from 0.000252898 +++++++to 0.000252898
Heightened Def Con from 0.000252898 +++++++to 0.000252898
Heightened Def Con from 0.000252898 +++++++to 0.000252898
Heightened Def Con from 0.000252898 +++++++to 0.000252898
Heightened Def Con from 0.000252898 +++++++to 0.000252898
Heightened Def Con from 0.000252898 +++++++to 0.000252898
Heightened Def Con from 0.000252898 +++++++to 0.000252898
Heightened Def Con from 0.000252898 +++++++to 0.000252898
Heightened Def Con from 0.000252898 +++++++to 0.000252898
Heightened Def Con from 0.000252898 +++++++to 0.000252898
Heightened Def Con from 0.000252898 +++++++to 0.000252898
Heightened Def Con from 0.000252898 +++++++to 0.000252898
Heightened Def Con from 0.000252898 +++++++to 0.000252898
Heightened Def Con from 0.000252898 +++++++to 0.000252898
Heightened Def Con from 0.000252898 +++++++to 0.000252898
Heightened Def Con from 0.000252898 +++++++to 0.000252898
Heightened Def Con from 0.000252898 +++++++to 0.000252898
Heightened Def Con from 0.000252898 +++++++to 0.000252898
Heightened Def Con from 0.000252898 +++++++to 0.000252898
Heightened Def Con from 0.000252898 +++++++to 0.000252898
Heightened Def Con from 0.000252898 +++++++to 0.000252898
Heightened Def Con from 0.000252898 +++++++to 0.000252898
Heightened Def Con from 0.000252898 +++++++to 0.000252898
Heightened Def Con from 0.000252898 +++++++to 0.000252898
Heightened Def Con from 0.000252898 +++++++to 0.000252898
Heightened Def Con from 0.000252898 +++++++to 0.000252898
Heightened Def Con from 0.000252898 +++++++to 0.000252898
Heightened Def Con from 0.000252898 +++++++to 0.000252898
Heightened Def Con from 0.000252898 +++++++to 0.000252898
Heightened Def Con from 0.000252898 +++++++to 0.000252898
Heightened Def Con from 0.000252898 +++++++to 0.000252898
Heightened Def Con from 0.000252898 +++++++to 0.000252898
Heightened Def Con from 0.000252898 +++++++to 0.000252898
Heightened Def Con from 0.000252898 +++++++to 0.000252898
Heightened Def Con from 0.000252898 +++++++to 0.000252898
Heightened Def Con from 0.000252898 +++++++to 0.000252898
Heightened Def Con from 0.000252898 +++++++to 0.000252898
Heightened Def Con from 0.000252898 +++++++to 0.000252898
Heightened Def Con from 0.000252898 +++++++to 0.000252898
Heightened Def Con from 0.000252898 +++++++to 0.000252898
Heightened Def Con from 0.000252898 +++++++to 0.000252898
Heightened Def Con from 0.000252898 +++++++to 0.000252898
Heightened Def Con from 0.000252898 +++++++to 0.000252898
Heightened Def Con from 0.000252898 +++++++to 0.000252898
Heightened Def Con from 0.000252898 +++++++to 0.000252898
Heightened Def Con from 0.000252898 +++++++to 0.000252898
Heightened Def Con from 0.000252898 +++++++to 0.000252898
Heightened Def Con from 0.000252898 +++++++to 0.000252898
Heightened Def Con from 0.000252898 +++++++to 0.000252898
Heightened Def Con from 0.000252898 +++++++to 0.000252898
Heightened Def Con from 0.000252898 +++++++to 0.000252898
Heightened Def Con from 0.000252898 +++++++to 0.000252898
Heightened Def Con from 0.000252898 +++++++to 0.000252898
Heightened Def Con from 0.000252898 +++++++to 0.000252898
Heightened Def Con from 0.000252898 +++++++to 0.000252898
Heightened Def Con from 0.000252898 +++++++to 0.000252898
Heightened Def Con from 0.000252898 +++++++to 0.000252898
Heightened Def Con from 0.000252898 +++++++to 0.000252898
Heightened Def Con from 0.000252898 +++++++to 0.000252898
Heightened Def Con from 0.000252898 +++++++to 0.000252898
Heightened Def Con from 0.000252898 +++++++to 0.000252898
Heightened Def Con from 0.000252898 +++++++to 0.000252898
Heightened Def Con from 0.000252898 +++++++to 0.000252898
Heightened Def Con from 0.000252898 +++++++to 0.000252898
Heightened Def Con from 0.000252898 +++++++to 0.000252898
Heightened Def Con from 0.000252898 +++++++to 0.000252898
Heightened Def Con from 0.000252898 +++++++to 0.000252898
Heightened Def Con from 0.000252898 +++++++to 0.000252898
Heightened Def Con from 0.000252898 +++++++to 0.000252898
Heightened Def Con from 0.000252898 +++++++to 0.000252898
Heightened Def Con from 0.000252898 +++++++to 0.000252898
Heightened Def Con from 0.000252898 +++++++to 0.000252898
Heightened Def Con from 0.000252898 +++++++to 0.000252898
Heightened Def Con from 0.000252898 +++++++to 0.000252898
Heightened Def Con from 0.000252898 +++++++to 0.000252898
Heightened Def Con from 0.000252898 +++++++to 0.000252898
Heightened Def Con from 0.000252898 +++++++to 0.000252898
Heightened Def Con from 0.000252898 +++++++to 0.000252898
Heightened Def Con from 0.000252898 +++++++to 0.000252898
Heightened Def Con from 0.000252898 +++++++to 0.000252898
Heightened Def Con from 0.000252898 +++++++to 0.000252898
Heightened Def Con from 0.000252898 +++++++to 0.000252898
Heightened Def Con from 0.000252898 +++++++to 0.000252898
Heightened Def Con from 0.000252898 +++++++to 0.000252898
Heightened Def Con from 0.000252898 +++++++to 0.000252898
Heightened Def Con from 0.000252898 +++++++to 0.000252898
Heightened Def Con from 0.000252898 +++++++to 0.000252898
Heightened Def Con from 0.000252898 +++++++to 0.000252898
Heightened Def Con from 0.000252898 +++++++to 0.000252898
Heightened Def Con from 0.000252898 +++++++to 0.000252898
Heightened Def Con from 0.000252898 +++++++to 0.000252898
Heightened Def Con from 0.000252898 +++++++to 0.000252898
Heightened Def Con from 0.000252898 +++++++to 0.000252898
Heightened Def Con from 0.000252898 +++++++to 0.000252898
Heightened Def Con from 0.000252898 +++++++to 0.000252898
Heightened Def Con from 0.000252898 +++++++to 0.000252898
Heightened Def Con from 0.000252898 +++++++to 0.000252898
Heightened Def Con from 0.000252898 +++++++to 0.000252898
Heightened Def Con from 0.000252898 +++++++to 0.000252898
Heightened Def Con from 0.000252898 +++++++to 0.000252898
Heightened Def Con from 0.000252898 +++++++to 0.000252898
Heightened Def Con from 0.000252898 +++++++to 0.000252898
Heightened Def Con from 0.000252898 +++++++to 0.000252898
Heightened Def Con from 0.000252898 +++++++to 0.000252898
Heightened Def Con from 0.000252898 +++++++to 0.000252898
Heightened Def Con from 0.000252898 +++++++to 0.000252898
Heightened Def Con from 0.000252898 +++++++to 0.000252898
Heightened Def Con from 0.000252898 +++++++to 0.000252898
Heightened Def Con from 0.000252898 +++++++to 0.000252898
Heightened Def Con from 0.000252898 +++++++to 0.000252898
Heightened Def Con from 0.000252898 +++++++to 0.000252898
Heightened Def Con from 0.000252898 +++++++to 0.000252898
Heightened Def Con from 0.000252898 +++++++to 0.000252898
Heightened Def Con from 0.000252898 +++++++to 0.000252898
Heightened Def Con from 0.000252898 +++++++to 0.000252898
Heightened Def Con from 0.000252898 +++++++to 0.000252898
Heightened Def Con from 0.000252898 +++++++to 0.000252898
Heightened Def Con from 0.000252898 +++++++to 0.000252898
Heightened Def Con from 0.000252898 +++++++to 0.000252898
Heightened Def Con from 0.000252898 +++++++to 0.000252898
Heightened Def Con from 0.000252898 +++++++to 0.000252898
Heightened Def Con from 0.000252898 +++++++to 0.000252898
Heightened Def Con from 0.000252898 +++++++to 0.000252898
Heightened Def Con from 0.000252898 +++++++to 0.000252898
Heightened Def Con from 0.000252898 +++++++to 0.000252898
Heightened Def Con from 0.000252898 +++++++to 0.000252898
Heightened Def Con from 0.000252898 +++++++to 0.000252898
Heightened Def Con from 0.000252898 +++++++to 0.000252898
Heightened Def Con from 0.000252898 +++++++to 0.000252898
Heightened Def Con from 0.000252898 +++++++to 0.000252898
Heightened Def Con from 0.000252898 +++++++to 0.000252898
Heightened Def Con from 0.000252898 +++++++to 0.000252898
Heightened Def Con from 0.000252898 +++++++to 0.000252898
Heightened Def Con from 0.000252898 +++++++to 0.000252898
Heightened Def Con from 0.000252898 +++++++to 0.000252898
Heightened Def Con from 0.000252898 +++++++to 0.000252898
Heightened Def Con from 0.000252898 +++++++to 0.000252898
Heightened Def Con from 0.000252898 +++++++to 0.000252898
Heightened Def Con from 0.000252898 +++++++to 0.000252898
Heightened Def Con from 0.000252898 +++++++to 0.000252898
Heightened Def Con from 0.000252898 +++++++to 0.000252898
Heightened Def Con from 0.000252898 +++++++to 0.000252898
Heightened Def Con from 0.000252898 +++++++to 0.000252898
Heightened Def Con from 0.000252898 +++++++to 0.000252898
Heightened Def Con from 0.000252898 +++++++to 0.000252898
Heightened Def Con from 0.000252898 +++++++to 0.000252898
Heightened Def Con from 0.000252898 +++++++to 0.000252898
Heightened Def Con from 0.000252898 +++++++to 0.000252898
Heightened Def Con from 0.000252898 +++++++to 0.000252898
Heightened Def Con from 0.000252898 +++++++to 0.000252898
Heightened Def Con from 0.000252898 +++++++to 0.000252898
Heightened Def Con from 0.000252898 +++++++to 0.000252898
Heightened Def Con from 0.000252898 +++++++to 0.000252898
Heightened Def Con from 0.000252898 +++++++to 0.000252898
Heightened Def Con from 0.000252898 +++++++to 0.000252898
Heightened Def Con from 0.000252898 +++++++to 0.000252898
Heightened Def Con from 0.000252898 +++++++to 0.000252898
Heightened Def Con from 0.000252898 +++++++to 0.000252898
Heightened Def Con from 0.000252898 +++++++to 0.000252898
Heightened Def Con from 0.000252898 +++++++to 0.000252898
Heightened Def Con from 0.000252898 +++++++to 0.000252898
Heightened Def Con from 0.000252898 +++++++to 0.000252898
Heightened Def Con from 0.000252898 +++++++to 0.000252898
Heightened Def Con from 0.000252898 +++++++to 0.000252898
Heightened Def Con from 0.000252898 +++++++to 0.000252898
Heightened Def Con from 0.000252898 +++++++to 0.000252898
Heightened Def Con from 0.000252898 +++++++to 0.000252898
Heightened Def Con from 0.000252898 +++++++to 0.000252898
Heightened Def Con from 0.000252898 +++++++to 0.000252898
Heightened Def Con from 0.000252898 +++++++to 0.000252898
Heightened Def Con from 0.000252898 +++++++to 0.000252898
Heightened Def Con from 0.000252898 +++++++to 0.000252898
Heightened Def Con from 0.000252898 +++++++to 0.000252898
Heightened Def Con from 0.000252898 +++++++to 0.000252898
Heightened Def Con from 0.000252898 +++++++to 0.000252898
Heightened Def Con from 0.000252898 +++++++to 0.000252898
Heightened Def Con from 0.000252898 +++++++to 0.000252898
Heightened Def Con from 0.000252898 +++++++to 0.000252898
Heightened Def Con from 0.000252898 +++++++to 0.000252898
Heightened Def Con from 0.000252898 +++++++to 0.000252898
Heightened Def Con from 0.000252898 +++++++to 0.000252898
Heightened Def Con from 0.000252898 +++++++to 0.000252898
Heightened Def Con from 0.000252898 +++++++to 0.000252898
Heightened Def Con from 0.000252898 +++++++to 0.000252898
Heightened Def Con from 0.000252898 +++++++to 0.000252898
Heightened Def Con from 0.000252898 +++++++to 0.000252898
Heightened Def Con from 0.000252898 +++++++to 0.000252898
Heightened Def Con from 0.000252898 +++++++to 0.000252898
Heightened Def Con from 0.000252898 +++++++to 0.000252898
Heightened Def Con from 0.000252898 +++++++to 0.000252898
Heightened Def Con from 0.000252898 +++++++to 0.000252898
Heightened Def Con from 0.000252898 +++++++to 0.000252898
Heightened Def Con from 0.000252898 +++++++to 0.000252898
Heightened Def Con from 0.000252898 +++++++to 0.000252898
Heightened Def Con from 0.000252898 +++++++to 0.000252898
Heightened Def Con from 0.000252898 +++++++to 0.000252898
Heightened Def Con from 0.000252898 +++++++to 0.000252898
Heightened Def Con from 0.000252898 +++++++to 0.000252898
Heightened Def Con from 0.000252898 +++++++to 0.000252898
Heightened Def Con from 0.000252898 +++++++to 0.000252898
Heightened Def Con from 0.000252898 +++++++to 0.000252898
Heightened Def Con from 0.000252898 +++++++to 0.000252898
Heightened Def Con from 0.000252898 +++++++to 0.000252898
Heightened Def Con from 0.000252898 +++++++to 0.000252898
Heightened Def Con from 0.000252898 +++++++to 0.000252898
Heightened Def Con from 0.000252898 +++++++to 0.000252898
Heightened Def Con from 0.000252898 +++++++to 0.000252898
Heightened Def Con from 0.000252898 +++++++to 0.000252898
Heightened Def Con from 0.000252898 +++++++to 0.000252898
Heightened Def Con from 0.000252898 +++++++to 0.000252898
Heightened Def Con from 0.000252898 +++++++to 0.000252898
Heightened Def Con from 0.000252898 +++++++to 0.000252898
Heightened Def Con from 0.000252898 +++++++to 0.000252898
Heightened Def Con from 0.000252898 +++++++to 0.000252898
Heightened Def Con from 0.000252898 +++++++to 0.000252898
Heightened Def Con from 0.000252898 +++++++to 0.000252898
Heightened Def Con from 0.000252898 +++++++to 0.000252898
Heightened Def Con from 0.000252898 +++++++to 0.000252898
Heightened Def Con from 0.000252898 +++++++to 0.000252898
Heightened Def Con from 0.000252898 +++++++to 0.000252898
Heightened Def Con from 0.000252898 +++++++to 0.000252898
Heightened Def Con from 0.000252898 +++++++to 0.000252898
Heightened Def Con from 0.000252898 +++++++to 0.000252898
Heightened Def Con from 0.000252898 +++++++to 0.000252898
Heightened Def Con from 0.000252898 +++++++to 0.000252898
Heightened Def Con from 0.000252898 +++++++to 0.000252898
Heightened Def Con from 0.000252898 +++++++to 0.000252898
Heightened Def Con from 0.000252898 +++++++to 0.000252898
Heightened Def Con from 0.000252898 +++++++to 0.000252898
Heightened Def Con from 0.000252898 +++++++to 0.000252898
Heightened Def Con from 0.000252898 +++++++to 0.000252898
Heightened Def Con from 0.000252898 +++++++to 0.000252898
Heightened Def Con from 0.000252898 +++++++to 0.000252898
Heightened Def Con from 0.000252898 +++++++to 0.000252898
Heightened Def Con from 0.000252898 +++++++to 0.000252898
Heightened Def Con from 0.000252898 +++++++to 0.000252898
Heightened Def Con from 0.000252898 +++++++to 0.000252898
Heightened Def Con from 0.000252898 +++++++to 0.000252898
Heightened Def Con from 0.000252898 +++++++to 0.000252898
Heightened Def Con from 0.000252898 +++++++to 0.000252898
Heightened Def Con from 0.000252898 +++++++to 0.000252898
Heightened Def Con from 0.000252898 +++++++to 0.000252898
Heightened Def Con from 0.000252898 +++++++to 0.000252898
Heightened Def Con from 0.000252898 +++++++to 0.000252898
Heightened Def Con from 0.000252898 +++++++to 0.000252898
Heightened Def Con from 0.000252898 +++++++to 0.000252898
Heightened Def Con from 0.000252898 +++++++to 0.000252898
Heightened Def Con from 0.000252898 +++++++to 0.000252898
Heightened Def Con from 0.000252898 +++++++to 0.000252898
Heightened Def Con from 0.000252898 +++++++to 0.000252898
Heightened Def Con from 0.000252898 +++++++to 0.000252898
Heightened Def Con from 0.000252898 +++++++to 0.000252898
Heightened Def Con from 0.000252898 +++++++to 0.000252898
Heightened Def Con from 0.000252898 +++++++to 0.000252898
Heightened Def Con from 0.000252898 +++++++to 0.000252898
Heightened Def Con from 0.000252898 +++++++to 0.000252898
Heightened Def Con from 0.000252898 +++++++to 0.000252898
Heightened Def Con from 0.000252898 +++++++to 0.000252898
Heightened Def Con from 0.000252898 +++++++to 0.000252898
Heightened Def Con from 0.000252898 +++++++to 0.000252898
Heightened Def Con from 0.000252898 +++++++to 0.000252898
Heightened Def Con from 0.000252898 +++++++to 0.000252898
Heightened Def Con from 0.000252898 +++++++to 0.000252898
Heightened Def Con from 0.000252898 +++++++to 0.000252898
Heightened Def Con from 0.000252898 +++++++to 0.000252898
Heightened Def Con from 0.000252898 +++++++to 0.000252898
Heightened Def Con from 0.000252898 +++++++to 0.000252898
Heightened Def Con from 0.000252898 +++++++to 0.000252898
Heightened Def Con from 0.000252898 +++++++to 0.000252898
Heightened Def Con from 0.000252898 +++++++to 0.000252898
Heightened Def Con from 0.000252898 +++++++to 0.000252898
Heightened Def Con from 0.000252898 +++++++to 0.000252898
Heightened Def Con from 0.000252898 +++++++to 0.000252898
Heightened Def Con from 0.000252898 +++++++to 0.000252898
Heightened Def Con from 0.000252898 +++++++to 0.000252898
Heightened Def Con from 0.000252898 +++++++to 0.000252898
Heightened Def Con from 0.000252898 +++++++to 0.000252898
Heightened Def Con from 0.000252898 +++++++to 0.000252898
Heightened Def Con from 0.000252898 +++++++to 0.000252898
Heightened Def Con from 0.000252898 +++++++to 0.000252898
Heightened Def Con from 0.000252898 +++++++to 0.000252898
Heightened Def Con from 0.000252898 +++++++to 0.000252898
Heightened Def Con from 0.000252898 +++++++to 0.000252898
Heightened Def Con from 0.000252898 +++++++to 0.000252898
Heightened Def Con from 0.000252898 +++++++to 0.000252898
Heightened Def Con from 0.000252898 +++++++to 0.000252898
Heightened Def Con from 0.000252898 +++++++to 0.000252898
Heightened Def Con from 0.000252898 +++++++to 0.000252898
Heightened Def Con from 0.000252898 +++++++to 0.000252898
Heightened Def Con from 0.000252898 +++++++to 0.000252898
Heightened Def Con from 0.000252898 +++++++to 0.000252898
Heightened Def Con from 0.000252898 +++++++to 0.000252898
Heightened Def Con from 0.000252898 +++++++to 0.000252898
Heightened Def Con from 0.000252898 +++++++to 0.000252898
Heightened Def Con from 0.000252898 +++++++to 0.000252898
Heightened Def Con from 0.000252898 +++++++to 0.000252898
Heightened Def Con from 0.000252898 +++++++to 0.000252898
Heightened Def Con from 0.000252898 +++++++to 0.000252898
Heightened Def Con from 0.000252898 +++++++to 0.000252898
Heightened Def Con from 0.000252898 +++++++to 0.000252898
Heightened Def Con from 0.000252898 +++++++to 0.000252898
Heightened Def Con from 0.000252898 +++++++to 0.000252898
Heightened Def Con from 0.000252898 +++++++to 0.000252898
Heightened Def Con from 0.000252898 +++++++to 0.000252898
Heightened Def Con from 0.000252898 +++++++to 0.000252898
Heightened Def Con from 0.000252898 +++++++to 0.000252898
Heightened Def Con from 0.000252898 +++++++to 0.000252898
Heightened Def Con from 0.000252898 +++++++to 0.000252898
Heightened Def Con from 0.000252898 +++++++to 0.000252898
Heightened Def Con from 0.000252898 +++++++to 0.000252898
Heightened Def Con from 0.000252898 +++++++to 0.000252898
Heightened Def Con from 0.000252898 +++++++to 0.000252898
Heightened Def Con from 0.000252898 +++++++to 0.000252898
Heightened Def Con from 0.000252898 +++++++to 0.000252898
Heightened Def Con from 0.000252898 +++++++to 0.000252898
Heightened Def Con from 0.000252898 +++++++to 0.000252898
Heightened Def Con from 0.000252898 +++++++to 0.000252898
Heightened Def Con from 0.000252898 +++++++to 0.000252898
Heightened Def Con from 0.000252898 +++++++to 0.000252898
Heightened Def Con from 0.000252898 +++++++to 0.000252898
Heightened Def Con from 0.000252898 +++++++to 0.000252898
Heightened Def Con from 0.000252898 +++++++to 0.000252898
Heightened Def Con from 0.000252898 +++++++to 0.000252898
Heightened Def Con from 0.000252898 +++++++to 0.000252898
Heightened Def Con from 0.000252898 +++++++to 0.000252898
[...]
Heightened Def Con from 0.000252898 +++++++to 0.000252898
Heightened Def Con from 0.000252898 +++++++to 0.000252898
Heightened Def Con from 0.000252898 +++++++to 0.000252898
Heightened Def Con from 0.000252898 +++++++to 0.000252898
Heightened Def Con from 0.000252898 +++++++to 0.000252898
Heightened Def Con from 0.000252898 +++++++to 0.000252898
Heightened Def Con from 0.000252898 +++++++to 0.000252898
Heightened Def Con from 0.000252898 +++++++to 0.000252898
Heightened Def Con from 0.000252898 +++++++to 0.000252898
Heightened Def Con from 0.000252898 +++++++to 0.000252898
Heightened Def Con from 0.000252898 +++++++to 0.000252898
Heightened Def Con from 0.000252898 +++++++to 0.000252898
Heightened Def Con from 0.000252898 +++++++to 0.000252898
Heightened Def Con from 0.000252898 +++++++to 0.000252898
Heightened Def Con from 0.000252898 +++++++to 0.000252898
Heightened Def Con from 0.000252898 +++++++to 0.000252898
Heightened Def Con from 0.000252898 +++++++to 0.000252898
Heightened Def Con from 0.000252898 +++++++to 0.000252898
Heightened Def Con from 0.000252898 +++++++to 0.000252898
Heightened Def Con from 0.000252898 +++++++to 0.000252898
Heightened Def Con from 0.000252898 +++++++to 0.000252898
Heightened Def Con from 0.000252898 +++++++to 0.000252898
Heightened Def Con from 0.000252898 +++++++to 0.000252898
Heightened Def Con from 0.000252898 +++++++to 0.000252898
Heightened Def Con from 0.000252898 +++++++to 0.000252898
Heightened Def Con from 0.000252898 +++++++to 0.000252898
Heightened Def Con from 0.000252898 +++++++to 0.000252898
Heightened Def Con from 0.000252898 +++++++to 0.000252898
Heightened Def Con from 0.000252898 +++++++to 0.000252898
Heightened Def Con from 0.000252898 +++++++to 0.000252898
Heightened Def Con from 0.000252898 +++++++to 0.000252898
Heightened Def Con from 0.000252898 +++++++to 0.000252898
Heightened Def Con from 0.000252898 +++++++to 0.000252898
Heightened Def Con from 0.000252898 +++++++to 0.000252898
Heightened Def Con from 0.000252898 +++++++to 0.000252898
Heightened Def Con from 0.000252898 +++++++to 0.000252898
Heightened Def Con from 0.000252898 +++++++to 0.000252898
Heightened Def Con from 0.000252898 +++++++to 0.000252898
Heightened Def Con from 0.000252898 +++++++to 0.000252898
Heightened Def Con from 0.000252898 +++++++to 0.000252898
Heightened Def Con from 0.000252898 +++++++to 0.000252898
Heightened Def Con from 0.000252898 +++++++to 0.000252898
Heightened Def Con from 0.000252898 +++++++to 0.000252898
Heightened Def Con from 0.000252898 +++++++to 0.000252898
Heightened Def Con from 0.000252898 +++++++to 0.000252898
Heightened Def Con from 0.000252898 +++++++to 0.000252898
Heightened Def Con from 0.000252898 +++++++to 0.000252898
Heightened Def Con from 0.000252898 +++++++to 0.000252898
Heightened Def Con from 0.000252898 +++++++to 0.000252898
Heightened Def Con from 0.000252898 +++++++to 0.000252898
Heightened Def Con from 0.000252898 +++++++to 0.000252898
Heightened Def Con from 0.000252898 +++++++to 0.000252898
Heightened Def Con from 0.000252898 +++++++to 0.000252898
Heightened Def Con from 0.000252898 +++++++to 0.000252898
Heightened Def Con from 0.000252898 +++++++to 0.000252898
Heightened Def Con from 0.000252898 +++++++to 0.000252898
Heightened Def Con from 0.000252898 +++++++to 0.000252898
Heightened Def Con from 0.000252898 +++++++to 0.000252898
Heightened Def Con from 0.000252898 +++++++to 0.000252898
Heightened Def Con from 0.000252898 +++++++to 0.000252898
Heightened Def Con from 0.000252898 +++++++to 0.000252898
Heightened Def Con from 0.000252898 +++++++to 0.000252898
Heightened Def Con from 0.000252898 +++++++to 0.000252898
Heightened Def Con from 0.000252898 +++++++to 0.000252898
Heightened Def Con from 0.000252898 +++++++to 0.000252898
Heightened Def Con from 0.000252898 +++++++to 0.000252898
Heightened Def Con from 0.000252898 +++++++to 0.000252898
Heightened Def Con from 0.000252898 +++++++to 0.000252898
Heightened Def Con from 0.000252898 +++++++to 0.000252898
Heightened Def Con from 0.000252898 +++++++to 0.000252898
Heightened Def Con from 0.000252898 +++++++to 0.000252898
Heightened Def Con from 0.000252898 +++++++to 0.000252898
Heightened Def Con from 0.000252898 +++++++to 0.000252898
Heightened Def Con from 0.000252898 +++++++to 0.000252898
Heightened Def Con from 0.000252898 +++++++to 0.000252898
Heightened Def Con from 0.000252898 +++++++to 0.000252898
Heightened Def Con from 0.000252898 +++++++to 0.000252898
Heightened Def Con from 0.000252898 +++++++to 0.000252898
Heightened Def Con from 0.000252898 +++++++to 0.000252898
Heightened Def Con from 0.000252898 +++++++to 0.000252898
Heightened Def Con from 0.000252898 +++++++to 0.000252898
Heightened Def Con from 0.000252898 +++++++to 0.000252898
Heightened Def Con from 0.000252898 +++++++to 0.000252898
Heightened Def Con from 0.000252898 +++++++to 0.000252898
Heightened Def Con from 0.000252898 +++++++to 0.000252898
Heightened Def Con from 0.000252898 +++++++to 0.000252898
Heightened Def Con from 0.000252898 +++++++to 0.000252898
Heightened Def Con from 0.000252898 +++++++to 0.000252898
Heightened Def Con from 0.000252898 +++++++to 0.000252898
Heightened Def Con from 0.000252898 +++++++to 0.000252898
Heightened Def Con from 0.000252898 +++++++to 0.000252898
Heightened Def Con from 0.000252898 +++++++to 0.000252898
Heightened Def Con from 0.000252898 +++++++to 0.000252898
Heightened Def Con from 0.000252898 +++++++to 0.000252898
Heightened Def Con from 0.000252898 +++++++to 0.000252898
Heightened Def Con from 0.000252898 +++++++to 0.000252898
Heightened Def Con from 0.000252898 +++++++to 0.000252898
Heightened Def Con from 0.000252898 +++++++to 0.000252898
Heightened Def Con from 0.000252898 +++++++to 0.000252898
Heightened Def Con from 0.000252898 +++++++to 0.000252898
Heightened Def Con from 0.000252898 +++++++to 0.000252898
Heightened Def Con from 0.000252898 +++++++to 0.000252898
Heightened Def Con from 0.000252898 +++++++to 0.000252898
Heightened Def Con from 0.000252898 +++++++to 0.000252898
Heightened Def Con from 0.000252898 +++++++to 0.000252898
Heightened Def Con from 0.000252898 +++++++to 0.000252898
Heightened Def Con from 0.000252898 +++++++to 0.000252898
Heightened Def Con from 0.000252898 +++++++to 0.000252898
Heightened Def Con from 0.000252898 +++++++to 0.000252898
Heightened Def Con from 0.000252898 +++++++to 0.000252898
Heightened Def Con from 0.000252898 +++++++to 0.000252898
Heightened Def Con from 0.000252898 +++++++to 0.000252898
Heightened Def Con from 0.000252898 +++++++to 0.000252898
Heightened Def Con from 0.000252898 +++++++to 0.000252898
Heightened Def Con from 0.000252898 +++++++to 0.000252898
Heightened Def Con from 0.000252898 +++++++to 0.000252898
Heightened Def Con from 0.000252898 +++++++to 0.000252898
Heightened Def Con from 0.000252898 +++++++to 0.000252898
Heightened Def Con from 0.000252898 +++++++to 0.000252898
Heightened Def Con from 0.000252898 +++++++to 0.000252898
Heightened Def Con from 0.000252898 +++++++to 0.000252898
Heightened Def Con from 0.000252898 +++++++to 0.000252898
Heightened Def Con from 0.000252898 +++++++to 0.000252898
Heightened Def Con from 0.000252898 +++++++to 0.000252898
Heightened Def Con from 0.000252898 +++++++to 0.000252898
Heightened Def Con from 0.000252898 +++++++to 0.000252898
Heightened Def Con from 0.000252898 +++++++to 0.000252898
Heightened Def Con from 0.000252898 +++++++to 0.000252898
Heightened Def Con from 0.000252898 +++++++to 0.000252898
Heightened Def Con from 0.000252898 +++++++to 0.000252898
Heightened Def Con from 0.000252898 +++++++to 0.000252898
Heightened Def Con from 0.000252898 +++++++to 0.000252898
Heightened Def Con from 0.000252898 +++++++to 0.000252898
Heightened Def Con from 0.000252898 +++++++to 0.000252898
Heightened Def Con from 0.000252898 +++++++to 0.000252898
Heightened Def Con from 0.000252898 +++++++to 0.000252898
Heightened Def Con from 0.000252898 +++++++to 0.000252898
Heightened Def Con from 0.000252898 +++++++to 0.000252898
Heightened Def Con from 0.000252898 +++++++to 0.000252898
Heightened Def Con from 0.000252898 +++++++to 0.000252898
Heightened Def Con from 0.000252898 +++++++to 0.000252898
Heightened Def Con from 0.000252898 +++++++to 0.000252898
Heightened Def Con from 0.000252898 +++++++to 0.000252898
Heightened Def Con from 0.000252898 +++++++to 0.000252898
Heightened Def Con from 0.000252898 +++++++to 0.000252898
Heightened Def Con from 0.000252898 +++++++to 0.000252898
Heightened Def Con from 0.000252898 +++++++to 0.000252898
Heightened Def Con from 0.000252898 +++++++to 0.000252898
Heightened Def Con from 0.000252898 +++++++to 0.000252898
Heightened Def Con from 0.000252898 +++++++to 0.000252898
Heightened Def Con from 0.000252898 +++++++to 0.000252898
Heightened Def Con from 0.000252898 +++++++to 0.000252898
Heightened Def Con from 0.000252898 +++++++to 0.000252898
Heightened Def Con from 0.000252898 +++++++to 0.000252898
Heightened Def Con from 0.000252898 +++++++to 0.000252898
Heightened Def Con from 0.000252898 +++++++to 0.000252898
Heightened Def Con from 0.000252898 +++++++to 0.000252898
Heightened Def Con from 0.000252898 +++++++to 0.000252898
Heightened Def Con from 0.000252898 +++++++to 0.000252898
Heightened Def Con from 0.000252898 +++++++to 0.000252898
Heightened Def Con from 0.000252898 +++++++to 0.000252898
Heightened Def Con from 0.000252898 +++++++to 0.000252898
Heightened Def Con from 0.000252898 +++++++to 0.000252898
Heightened Def Con from 0.000252898 +++++++to 0.000252898
Heightened Def Con from 0.000252898 +++++++to 0.000252898
Heightened Def Con from 0.000252898 +++++++to 0.000252898
Heightened Def Con from 0.000252898 +++++++to 0.000252898
Heightened Def Con from 0.000252898 +++++++to 0.000252898
Heightened Def Con from 0.000252898 +++++++to 0.000252898
Heightened Def Con from 0.000252898 +++++++to 0.000252898
Heightened Def Con from 0.000252898 +++++++to 0.000252898
Heightened Def Con from 0.000252898 +++++++to 0.000252898
Heightened Def Con from 0.000252898 +++++++to 0.000252898
Heightened Def Con from 0.000252898 +++++++to 0.000252898
Heightened Def Con from 0.000252898 +++++++to 0.000252898
Heightened Def Con from 0.000252898 +++++++to 0.000252898
Heightened Def Con from 0.000252898 +++++++to 0.000252898
Heightened Def Con from 0.000252898 +++++++to 0.000252898
Heightened Def Con from 0.000252898 +++++++to 0.000252898
Heightened Def Con from 0.000252898 +++++++to 0.000252898
Heightened Def Con from 0.000252898 +++++++to 0.000252898
Heightened Def Con from 0.000252898 +++++++to 0.000252898
Heightened Def Con from 0.000252898 +++++++to 0.000252898
Heightened Def Con from 0.000252898 +++++++to 0.000252898
Heightened Def Con from 0.000252898 +++++++to 0.000252898
Heightened Def Con from 0.000252898 +++++++to 0.000252898
Heightened Def Con from 0.000252898 +++++++to 0.000252898
Heightened Def Con from 0.000252898 +++++++to 0.000252898
Heightened Def Con from 0.000252898 +++++++to 0.000252898
Heightened Def Con from 0.000252898 +++++++to 0.000252898
Heightened Def Con from 0.000252898 +++++++to 0.000252898
Heightened Def Con from 0.000252898 +++++++to 0.000252898
Heightened Def Con from 0.000252898 +++++++to 0.000252898
Heightened Def Con from 0.000252898 +++++++to 0.000252898
Heightened Def Con from 0.000252898 +++++++to 0.000252898
Heightened Def Con from 0.000252898 +++++++to 0.000252898
Heightened Def Con from 0.000252898 +++++++to 0.000252898
Heightened Def Con from 0.000252898 +++++++to 0.000252898
Heightened Def Con from 0.000252898 +++++++to 0.000252898
Heightened Def Con from 0.000252898 +++++++to 0.000252898
Heightened Def Con from 0.000252898 +++++++to 0.000252898
Heightened Def Con from 0.000252898 +++++++to 0.000252898
Heightened Def Con from 0.000252898 +++++++to 0.000252898
Heightened Def Con from 0.000252898 +++++++to 0.000252898
Heightened Def Con from 0.000252898 +++++++to 0.000252898
Heightened Def Con from 0.000252898 +++++++to 0.000252898
Heightened Def Con from 0.000252898 +++++++to 0.000252898
Heightened Def Con from 0.000252898 +++++++to 0.000252898
Heightened Def Con from 0.000252898 +++++++to 0.000252898
Heightened Def Con from 0.000252898 +++++++to 0.000252898
Heightened Def Con from 0.000252898 +++++++to 0.000252898
Heightened Def Con from 0.000252898 +++++++to 0.000252898
Heightened Def Con from 0.000252898 +++++++to 0.000252898
Heightened Def Con from 0.000252898 +++++++to 0.000252898
Heightened Def Con from 0.000252898 +++++++to 0.000252898
Heightened Def Con from 0.000252898 +++++++to 0.000252898
Heightened Def Con from 0.000252898 +++++++to 0.000252898
Heightened Def Con from 0.000252898 +++++++to 0.000252898
Heightened Def Con from 0.000252898 +++++++to 0.000252898
Heightened Def Con from 0.000252898 +++++++to 0.000252898
Heightened Def Con from 0.000252898 +++++++to 0.000252898
Heightened Def Con from 0.000252898 +++++++to 0.000252898
Heightened Def Con from 0.000252898 +++++++to 0.000252898
Heightened Def Con from 0.000252898 +++++++to 0.000252898
Heightened Def Con from 0.000252898 +++++++to 0.000252898
Heightened Def Con from 0.000252898 +++++++to 0.000252898
Heightened Def Con from 0.000252898 +++++++to 0.000252898
Heightened Def Con from 0.000252898 +++++++to 0.000252898
Heightened Def Con from 0.000252898 +++++++to 0.000252898
Heightened Def Con from 0.000252898 +++++++to 0.000252898
Heightened Def Con from 0.000252898 +++++++to 0.000252898
Heightened Def Con from 0.000252898 +++++++to 0.000252898
Heightened Def Con from 0.000252898 +++++++to 0.000252898
Heightened Def Con from 0.000252898 +++++++to 0.000252898
Heightened Def Con from 0.000252898 +++++++to 0.000252898
Heightened Def Con from 0.000252898 +++++++to 0.000252898
Heightened Def Con from 0.000252898 +++++++to 0.000252898
Heightened Def Con from 0.000252898 +++++++to 0.000252898
Heightened Def Con from 0.000252898 +++++++to 0.000252898
Heightened Def Con from 0.000252898 +++++++to 0.000252898
Heightened Def Con from 0.000252898 +++++++to 0.000252898
Heightened Def Con from 0.000252898 +++++++to 0.000252898
Heightened Def Con from 0.000252898 +++++++to 0.000252898
Heightened Def Con from 0.000252898 +++++++to 0.000252898
Heightened Def Con from 0.000252898 +++++++to 0.000252898
Heightened Def Con from 0.000252898 +++++++to 0.000252898
Heightened Def Con from 0.000252898 +++++++to 0.000252898
Heightened Def Con from 0.000252898 +++++++to 0.000252898
Heightened Def Con from 0.000252898 +++++++to 0.000252898
Heightened Def Con from 0.000252898 +++++++to 0.000252898
Heightened Def Con from 0.000252898 +++++++to 0.000252898
Heightened Def Con from 0.000252898 +++++++to 0.000252898
Heightened Def Con from 0.000252898 +++++++to 0.000252898
Heightened Def Con from 0.000252898 +++++++to 0.000252898
Heightened Def Con from 0.000252898 +++++++to 0.000252898
Heightened Def Con from 0.000252898 +++++++to 0.000252898
Heightened Def Con from 0.000252898 +++++++to 0.000252898
Heightened Def Con from 0.000252898 +++++++to 0.000252898
Heightened Def Con from 0.000252898 +++++++to 0.000252898
Heightened Def Con from 0.000252898 +++++++to 0.000252898
Heightened Def Con from 0.000252898 +++++++to 0.000252898
Heightened Def Con from 0.000252898 +++++++to 0.000252898
Heightened Def Con from 0.000252898 +++++++to 0.000252898
Heightened Def Con from 0.000252898 +++++++to 0.000252898
Heightened Def Con from 0.000252898 +++++++to 0.000252898
Heightened Def Con from 0.000252898 +++++++to 0.000252898
Heightened Def Con from 0.000252898 +++++++to 0.000252898
Heightened Def Con from 0.000252898 +++++++to 0.000252898
Heightened Def Con from 0.000252898 +++++++to 0.000252898
Heightened Def Con from 0.000252898 +++++++to 0.000252898
Heightened Def Con from 0.000252898 +++++++to 0.000252898
Heightened Def Con from 0.000252898 +++++++to 0.000252898
Heightened Def Con from 0.000252898 +++++++to 0.000252898
Heightened Def Con from 0.000252898 +++++++to 0.000252898
Heightened Def Con from 0.000252898 +++++++to 0.000252898
Heightened Def Con from 0.000252898 +++++++to 0.000252898
Heightened Def Con from 0.000252898 +++++++to 0.000252898
Heightened Def Con from 0.000252898 +++++++to 0.000252898
Heightened Def Con from 0.000252898 +++++++to 0.000252898
Heightened Def Con from 0.000252898 +++++++to 0.000252898
Heightened Def Con from 0.000252898 +++++++to 0.000252898
Heightened Def Con from 0.000252898 +++++++to 0.000252898
Heightened Def Con from 0.000252898 +++++++to 0.000252898
Heightened Def Con from 0.000252898 +++++++to 0.000252898
Heightened Def Con from 0.000252898 +++++++to 0.000252898
Heightened Def Con from 0.000252898 +++++++to 0.000252898
Heightened Def Con from 0.000252898 +++++++to 0.000252898
Heightened Def Con from 0.000252898 +++++++to 0.000252898
Heightened Def Con from 0.000252898 +++++++to 0.000252898
Heightened Def Con from 0.000252898 +++++++to 0.000252898
Heightened Def Con from 0.000252898 +++++++to 0.000252898
Heightened Def Con from 0.000252898 +++++++to 0.000252898
Heightened Def Con from 0.000252898 +++++++to 0.000252898
Heightened Def Con from 0.000252898 +++++++to 0.000252898
Heightened Def Con from 0.000252898 +++++++to 0.000252898
Heightened Def Con from 0.000252898 +++++++to 0.000252898
Heightened Def Con from 0.000252898 +++++++to 0.000252898
Heightened Def Con from 0.000252898 +++++++to 0.000252898
Heightened Def Con from 0.000252898 +++++++to 0.000252898
Heightened Def Con from 0.000252898 +++++++to 0.000252898
Heightened Def Con from 0.000252898 +++++++to 0.000252898
Heightened Def Con from 0.000252898 +++++++to 0.000252898
Heightened Def Con from 0.000252898 +++++++to 0.000252898
Heightened Def Con from 0.000252898 +++++++to 0.000252898
Heightened Def Con from 0.000252898 +++++++to 0.000252898
Heightened Def Con from 0.000252898 +++++++to 0.000252898
Heightened Def Con from 0.000252898 +++++++to 0.000252898
Heightened Def Con from 0.000252898 +++++++to 0.000252898
Heightened Def Con from 0.000252898 +++++++to 0.000252898
Heightened Def Con from 0.000252898 +++++++to 0.000252898
Heightened Def Con from 0.000252898 +++++++to 0.000252898
Heightened Def Con from 0.000252898 +++++++to 0.000252898
Heightened Def Con from 0.000252898 +++++++to 0.000252898
Heightened Def Con from 0.000252898 +++++++to 0.000252898
Heightened Def Con from 0.000252898 +++++++to 0.000252898
Heightened Def Con from 0.000252898 +++++++to 0.000252898
Heightened Def Con from 0.000252898 +++++++to 0.000252898
Heightened Def Con from 0.000252898 +++++++to 0.000252898
Heightened Def Con from 0.000252898 +++++++to 0.000252898
Heightened Def Con from 0.000252898 +++++++to 0.000252898
Heightened Def Con from 0.000252898 +++++++to 0.000252898
Heightened Def Con from 0.000252898 +++++++to 0.000252898
Heightened Def Con from 0.000252898 +++++++to 0.000252898
Heightened Def Con from 0.000252898 +++++++to 0.000252898
Heightened Def Con from 0.000252898 +++++++to 0.000252898
Heightened Def Con from 0.000252898 +++++++to 0.000252898
Heightened Def Con from 0.000252898 +++++++to 0.000252898
Heightened Def Con from 0.000252898 +++++++to 0.000252898
Heightened Def Con from 0.000252898 +++++++to 0.000252898
Heightened Def Con from 0.000252898 +++++++to 0.000252898
Heightened Def Con from 0.000252898 +++++++to 0.000252898
Heightened Def Con from 0.000252898 +++++++to 0.000252898
Heightened Def Con from 0.000252898 +++++++to 0.000252898
Heightened Def Con from 0.000252898 +++++++to 0.000252898
Heightened Def Con from 0.000252898 +++++++to 0.000252898
Heightened Def Con from 0.000252898 +++++++to 0.000252898
Heightened Def Con from 0.000252898 +to 0.000252898

Date: Sun Aug 07 02:33:30 2022
Total elapsed time: 59.007 seconds.

tnom = 27
temp = 27
method = modified trap
totiter = 2771340
traniter = 2766572
tranpoints = 254584
accept = 26614
rejected = 250449
matrix size = 265
fillins = 448
solver = Normal
Thread vector: 11.7/9.4[4] 4.1/5.6[1] 3.0/3.4[1] 1.1/2.2[1]  2592/500
Matrix Compiler1: 32.69 KB object code size  7.9/5.0/[2.5]
Matrix Compiler2: 27.12 KB object code size  4.6/4.9/[1.5]

