Circuit: * C:\Users\KB1LQ\OneDrive\Documents\GitHub\ADA4610-Transmipedance-Amplifier-REV-1.0\Simulation\TIA_Preamp_Linedriver_AC.asc

WARNING: Less than two connections to node +10V.  This node is used by V3.
Direct Newton iteration for .op point succeeded.

Date: Sun Aug 07 02:38:12 2022
Total elapsed time: 0.052 seconds.

tnom = 27
temp = 27
method = trap
totiter = 37
traniter = 0
tranpoints = 0
accept = 0
rejected = 0
matrix size = 259
fillins = 240
solver = Normal
Matrix Compiler1:    1346 opcodes
Matrix Compiler2:    1908 opcodes
