Circuit: * C:\Users\KB1LQ\OneDrive\Documents\GitHub\ADA4610-Transmipedance-Amplifier-REV-1.0\Simulation\TIA_Preamp_Linedriver_AC.asc

WARNING: Node NC_01 is floating.

WARNING: Less than two connections to node +10V.  This node is used by V3.
WARNING: Less than two connections to node N006.  This node is used by R10.
WARNING: Less than two connections to node NC_01.  This node is used by C3.
Direct Newton iteration for .op point succeeded.

Date: Thu Aug 25 00:05:03 2022
Total elapsed time: 0.058 seconds.

tnom = 27
temp = 27
method = trap
totiter = 37
traniter = 0
tranpoints = 0
accept = 0
rejected = 0
matrix size = 260
fillins = 240
solver = Normal
Matrix Compiler1:    1346 opcodes
Matrix Compiler2:    1912 opcodes
